@<TRIPOS>MOLECULE
CHEMBL1836893
57 60 1 0 0 
SMALL
USER_CHARGES


@<TRIPOS>ATOM
      1 F1          8.8190   -2.5950   -0.4650 F         1 LIG        -0.3400
      2 C1          7.8060   -2.3110    0.3790 C.3       1 LIG         1.1640
      3 F2          8.2970   -2.1650    1.6270 F         1 LIG        -0.3400
      4 F3          6.9440   -3.3530    0.3840 F         1 LIG        -0.3400
      5 C2          7.0420   -1.0220   -0.0280 C.ar      1 LIG         0.1660
      6 N1          7.5610   -0.1670   -0.9750 N.ar      1 LIG        -0.6200
      7 C3          6.9050    0.9360   -1.3060 C.ar      1 LIG         0.4100
      8 N2          7.5190    1.7010   -2.2560 N.pl3     1 LIG        -0.9000
      9 H1          8.2800    1.1810   -2.7160 H         1 LIG         0.4000
     10 H2          6.8860    2.1920   -2.8970 H         1 LIG         0.4000
     11 C4          5.6740    1.2600   -0.7160 C.ar      1 LIG         0.1170
     12 N3          4.7940    2.3330   -0.8570 N.am      1 LIG        -0.5470
     13 H3          4.9300    3.1940   -1.4010 H         1 LIG         0.3700
     14 C5          3.7390    2.1700   -0.0240 C.2       1 LIG         0.6900
     15 O1          2.7760    2.9250    0.0650 O.2       1 LIG        -0.5700
     16 N4          3.9270    0.9760    0.6500 N.am      1 LIG        -0.4770
     17 C6          3.1400    0.5400    1.8100 C.3       1 LIG         0.2840
     18 H4          3.3450    1.2180    2.6300 H         1 LIG         0.0800
     19 H5          3.3880   -0.4840    2.0590 H         1 LIG         0.0800
     20 C7          1.6530    0.6050    1.4720 C.ar      1 LIG        -0.1440
     21 C8          1.1760    0.3660    0.1980 C.ar      1 LIG         0.2110
     22 H6          1.7800    0.1120   -0.6390 H         1 LIG         0.1500
     23 N5         -0.1620    0.4820   -0.0640 N.ar      1 LIG        -0.1790
     24 H7         -0.5030    0.3530   -1.0230 H         1 LIG         0.4570
     25 C9         -1.0510    0.8030    0.8910 C.ar      1 LIG         0.4610
     26 N6         -2.3600    0.9020    0.5450 N.pl3     1 LIG        -0.8690
     27 H8         -2.9520    1.3760    1.2570 H         1 LIG         0.4000
     28 C10        -2.9590    0.7950   -0.8240 C.3       1 LIG         0.2090
     29 H9         -2.7690    1.7090   -1.3930 H         1 LIG         0.0800
     30 H10        -2.5590   -0.0600   -1.3710 H         1 LIG         0.0800
     31 C11        -4.5000    0.6210   -0.6730 C.3       1 LIG         0.3430
     32 H11        -4.8780    1.5100   -0.1800 H         1 LIG         0.0800
     33 H12        -4.9410    0.5000   -1.6530 H         1 LIG         0.0800
     34 N7         -4.7510   -0.5770    0.1950 N.4       1 LIG        -0.9590
     35 H13        -4.0100   -0.6110    0.8910 H         1 LIG         0.4500
     36 C12        -4.7230   -1.8640   -0.5790 C.3       1 LIG         0.3430
     37 H14        -3.7810   -1.9620   -1.1060 H         1 LIG         0.0800
     38 H15        -4.8770   -2.6940    0.1030 H         1 LIG         0.0800
     39 C13        -5.8620   -1.9020   -1.6180 C.3       1 LIG        -0.1600
     40 H16        -5.7550   -1.1350   -2.3840 H         1 LIG         0.0800
     41 H17        -5.8480   -2.8740   -2.1170 H         1 LIG         0.0800
     42 C14        -7.1930   -1.7460   -0.8740 C.3       1 LIG        -0.1600
     43 H18        -8.0120   -1.7600   -1.5970 H         1 LIG         0.0800
     44 H19        -7.3390   -2.5820   -0.1850 H         1 LIG         0.0800
     45 C15        -7.2190   -0.4190   -0.1080 C.3       1 LIG        -0.1600
     46 H20        -8.1640   -0.3410    0.4350 H         1 LIG         0.0800
     47 H21        -7.1530    0.4270   -0.7930 H         1 LIG         0.0800
     48 C16        -6.0610   -0.4390    0.9110 C.3       1 LIG         0.3430
     49 H22        -6.0850    0.4920    1.4660 H         1 LIG         0.0800
     50 H23        -6.2100   -1.2920    1.5640 H         1 LIG         0.0800
     51 C17        -0.6010    1.0330    2.2070 C.ar      1 LIG        -0.1500
     52 H24        -1.3010    1.2880    2.9610 H         1 LIG         0.1500
     53 C18         0.7390    0.9360    2.4950 C.ar      1 LIG        -0.1500
     54 H25         1.0870    1.1210    3.4830 H         1 LIG         0.1500
     55 C19         5.1380    0.4230    0.2240 C.ar      1 LIG         0.1170
     56 C20         5.8180   -0.7380    0.5940 C.ar      1 LIG        -0.1500
     57 H26         5.4170   -1.3870    1.3280 H         1 LIG         0.1500
@<TRIPOS>BOND
  1   1   2  1   
  2   2   3  1   
  3   2   4  1   
  4   2   5  1   
  5   5   6  ar  
  6   5  56  ar  
  7   6   7  ar  
  8   7   8  1   
  9   7  11  ar  
 10   8   9  1   
 11   8  10  1   
 12  11  12  1   
 13  11  55  ar  
 14  12  13  1   
 15  12  14  am  
 16  14  15  2   
 17  14  16  am  
 18  16  17  1   
 19  16  55  1   
 20  17  18  1   
 21  17  19  1   
 22  17  20  1   
 23  20  21  ar  
 24  20  53  ar  
 25  21  22  1   
 26  21  23  ar  
 27  23  24  1   
 28  23  25  ar  
 29  25  26  1   
 30  25  51  ar  
 31  26  27  1   
 32  26  28  1   
 33  28  29  1   
 34  28  30  1   
 35  28  31  1   
 36  31  32  1   
 37  31  33  1   
 38  31  34  1   
 39  34  35  1   
 40  34  36  1   
 41  34  48  1   
 42  36  37  1   
 43  36  38  1   
 44  36  39  1   
 45  39  40  1   
 46  39  41  1   
 47  39  42  1   
 48  42  43  1   
 49  42  44  1   
 50  42  45  1   
 51  45  46  1   
 52  45  47  1   
 53  45  48  1   
 54  48  49  1   
 55  48  50  1   
 56  51  52  1   
 57  51  53  ar  
 58  53  54  1   
 59  55  56  ar  
 60  56  57  1   
@<TRIPOS>SUBSTRUCTURE
  1 ****  21 GROUP 4 **** **** 0

# MOE 2018.01 (io_trps.svl 2018.01)

