@<TRIPOS>MOLECULE
CHEMBL1836893
57 60 1 0 0 
SMALL
USER_CHARGES


@<TRIPOS>ATOM
      1 F1          8.8190   -2.5950   -0.4650 F         1 LIG        -0.3400
      2 C1          7.8060   -2.3110    0.3790 C.3       1 LIG         1.1640
      3 F2          8.2970   -2.1650    1.6270 F         1 LIG        -0.3400
      4 F3          6.9440   -3.3530    0.3840 F         1 LIG        -0.3400
      5 C2          7.0420   -1.0220   -0.0280 C.ar      1 LIG         0.1660
      6 N1          7.5610   -0.1670   -0.9750 N.ar      1 LIG        -0.6200
      7 C3          6.9050    0.9360   -1.3060 C.ar      1 LIG         0.4100
      8 N2          7.5190    1.7010   -2.2560 N.pl3     1 LIG        -0.9000
      9 H1          8.2800    1.1810   -2.7160 H         1 LIG         0.4000
     10 H2          6.8860    2.1920   -2.8970 H         1 LIG         0.4000
     11 C4          5.6740    1.2600   -0.7160 C.ar      1 LIG         0.1170
     12 N3          4.7940    2.3330   -0.8570 N.am      1 LIG        -0.5470
     13 H3          4.9300    3.1940   -1.4010 H         1 LIG         0.3700
     14 C5          3.7390    2.1700   -0.0240 C.2       1 LIG         0.6900
     15 O1          2.7760    2.9250    0.0650 O.2       1 LIG        -0.5700
     16 N4          3.9270    0.9760    0.6500 N.am      1 LIG        -0.4770
     17 C6          3.1400    0.5400    1.8100 C.3       1 LIG         0.2840
     18 H4          3.3450    1.2180    2.6300 H         1 LIG         0.0800
     19 H5          3.3880   -0.4840    2.0590 H         1 LIG         0.0800
     20 C7          1.6530    0.6050    1.4720 C.ar      1 LIG        -0.1440
     21 C8          1.1760    0.3660    0.1980 C.ar      1 LIG         0.2110
     22 H6          1.7800    0.1120   -0.6390 H         1 LIG         0.1500
     23 N5         -0.1620    0.4820   -0.0640 N.ar      1 LIG        -0.1790
     24 H7         -0.5030    0.3530   -1.0230 H         1 LIG         0.4570
     25 C9         -1.0510    0.8030    0.8910 C.ar      1 LIG         0.4610
     26 N6         -2.3600    0.9020    0.5450 N.pl3     1 LIG        -0.8690
     27 H8         -2.9520    1.3760    1.2570 H         1 LIG         0.4000
     28 C10        -2.9590    0.7950   -0.8240 C.3       1 LIG         0.2090
     29 H9         -2.7690    1.7090   -1.3930 H         1 LIG         0.0800
     30 H10        -2.5590   -0.0600   -1.3710 H         1 LIG         0.0800
     31 C11        -4.5000    0.6210   -0.6730 C.3       1 LIG         0.3430
     32 H11        -4.8780    1.5100   -0.1800 H         1 LIG         0.0800
     33 H12        -4.9410    0.5000   -1.6530 H         1 LIG         0.0800
     34 N7         -4.7510   -0.5770    0.1950 N.4       1 LIG        -0.9590
     35 H13        -4.0100   -0.6110    0.8910 H         1 LIG         0.4500
     36 C12        -4.7230   -1.8640   -0.5790 C.3       1 LIG         0.3430
     37 H14        -3.7810   -1.9620   -1.1060 H         1 LIG         0.0800
     38 H15        -4.8770   -2.6940    0.1030 H         1 LIG         0.0800
     39 C13        -5.8620   -1.9020   -1.6180 C.3       1 LIG        -0.1600
     40 H16        -5.7550   -1.1350   -2.3840 H         1 LIG         0.0800
     41 H17        -5.8480   -2.8740   -2.1170 H         1 LIG         0.0800
     42 C14        -7.1930   -1.7460   -0.8740 C.3       1 LIG        -0.1600
     43 H18        -8.0120   -1.7600   -1.5970 H         1 LIG         0.0800
     44 H19        -7.3390   -2.5820   -0.1850 H         1 LIG         0.0800
     45 C15        -7.2190   -0.4190   -0.1080 C.3       1 LIG        -0.1600
     46 H20        -8.1640   -0.3410    0.4350 H         1 LIG         0.0800
     47 H21        -7.1530    0.4270   -0.7930 H         1 LIG         0.0800
     48 C16        -6.0610   -0.4390    0.9110 C.3       1 LIG         0.3430
     49 H22        -6.0850    0.4920    1.4660 H         1 LIG         0.0800
     50 H23        -6.2100   -1.2920    1.5640 H         1 LIG         0.0800
     51 C17        -0.6010    1.0330    2.2070 C.ar      1 LIG        -0.1500
     52 H24        -1.3010    1.2880    2.9610 H         1 LIG         0.1500
     53 C18         0.7390    0.9360    2.4950 C.ar      1 LIG        -0.1500
     54 H25         1.0870    1.1210    3.4830 H         1 LIG         0.1500
     55 C19         5.1380    0.4230    0.2240 C.ar      1 LIG         0.1170
     56 C20         5.8180   -0.7380    0.5940 C.ar      1 LIG        -0.1500
     57 H26         5.4170   -1.3870    1.3280 H         1 LIG         0.1500
@<TRIPOS>BOND
  1   1   2  1   
  2   2   3  1   
  3   2   4  1   
  4   2   5  1   
  5   5   6  ar  
  6   5  56  ar  
  7   6   7  ar  
  8   7   8  1   
  9   7  11  ar  
 10   8   9  1   
 11   8  10  1   
 12  11  12  1   
 13  11  55  ar  
 14  12  13  1   
 15  12  14  am  
 16  14  15  2   
 17  14  16  am  
 18  16  17  1   
 19  16  55  1   
 20  17  18  1   
 21  17  19  1   
 22  17  20  1   
 23  20  21  ar  
 24  20  53  ar  
 25  21  22  1   
 26  21  23  ar  
 27  23  24  1   
 28  23  25  ar  
 29  25  26  1   
 30  25  51  ar  
 31  26  27  1   
 32  26  28  1   
 33  28  29  1   
 34  28  30  1   
 35  28  31  1   
 36  31  32  1   
 37  31  33  1   
 38  31  34  1   
 39  34  35  1   
 40  34  36  1   
 41  34  48  1   
 42  36  37  1   
 43  36  38  1   
 44  36  39  1   
 45  39  40  1   
 46  39  41  1   
 47  39  42  1   
 48  42  43  1   
 49  42  44  1   
 50  42  45  1   
 51  45  46  1   
 52  45  47  1   
 53  45  48  1   
 54  48  49  1   
 55  48  50  1   
 56  51  52  1   
 57  51  53  ar  
 58  53  54  1   
 59  55  56  ar  
 60  56  57  1   
@<TRIPOS>SUBSTRUCTURE
  1 ****  21 GROUP 4 **** **** 0

# MOE 2018.01 (io_trps.svl 2018.01)

@<TRIPOS>MOLECULE
CHEMBL4078859
51 54 1 0 0 
SMALL
USER_CHARGES


@<TRIPOS>ATOM
      1 O1         -4.5890    1.2120   -0.1670 O.3       1 LIG        -0.3630
      2 C1         -5.3030    0.4330   -1.1600 C.3       1 LIG         0.0400
      3 H1         -6.3710    0.5620   -0.9860 H         1 LIG         0.0800
      4 H2         -5.0170   -0.6130   -1.0460 H         1 LIG         0.0800
      5 H3         -5.0270    0.8040   -2.1480 H         1 LIG         0.0800
      6 C2         -3.2120    1.2760   -0.1020 C.ar      1 LIG         0.3920
      7 C3         -2.5560    2.0830    0.8520 C.ar      1 LIG         0.0830
      8 O2         -3.1860    2.8740    1.8110 O.3       1 LIG        -0.3630
      9 C4         -4.6080    3.0310    2.0200 C.3       1 LIG         0.0400
     10 H4         -4.7490    3.7200    2.8520 H         1 LIG         0.0800
     11 H5         -5.0300    2.0540    2.2570 H         1 LIG         0.0800
     12 H6         -5.0460    3.4380    1.1080 H         1 LIG         0.0800
     13 C5         -1.1720    2.1150    0.8650 C.ar      1 LIG        -0.1500
     14 H7         -0.6550    2.7180    1.5660 H         1 LIG         0.1500
     15 C6         -0.4900    1.3390   -0.0650 C.ar      1 LIG        -0.1500
     16 H8          0.5680    1.3540   -0.0750 H         1 LIG         0.1500
     17 C7         -1.1980    0.5540   -0.9770 C.ar      1 LIG         0.1660
     18 C8         -0.4810   -0.3180   -1.9910 C.3       1 LIG         0.2390
     19 H9          0.5560   -0.0300   -2.0690 H         1 LIG         0.0800
     20 H10        -1.0020   -0.2360   -2.9350 H         1 LIG         0.0800
     21 N1         -0.6050   -1.6990   -1.4920 N.pl3     1 LIG         0.0480
     22 C9          0.1990   -2.3730   -0.5610 C.ar      1 LIG        -0.1520
     23 C10         1.4000   -2.0600    0.1150 C.ar      1 LIG         0.4100
     24 N2          2.0740   -0.9320   -0.1410 N.pl3     1 LIG        -0.8690
     25 H11         1.8130   -0.3210   -0.9290 H         1 LIG         0.4000
     26 C11         3.3270   -0.5190    0.4950 C.3       1 LIG         0.3900
     27 H12         3.1930   -0.4590    1.5670 H         1 LIG         0.0800
     28 H13         4.1290   -1.1810    0.1950 H         1 LIG         0.0800
     29 C12         3.6100    0.8770   -0.0530 C.2       1 LIG         0.1080
     30 N3          3.0930    1.3710   -1.1360 N.2       1 LIG        -0.4100
     31 O3          3.5840    2.6060   -1.2860 O.3       1 LIG        -0.0190
     32 C13         4.4210    2.8890   -0.2870 C.2       1 LIG        -0.0400
     33 C14         5.1200    4.2240   -0.2140 C.3       1 LIG        -0.0600
     34 H14         5.7550    4.2400    0.6710 H         1 LIG         0.0800
     35 H15         4.3570    5.0010   -0.1570 H         1 LIG         0.0800
     36 H16         5.7160    4.3410   -1.1200 H         1 LIG         0.0800
     37 C15         4.4640    1.8150    0.5150 C.2       1 LIG        -0.1500
     38 H17         5.0360    1.7120    1.4000 H         1 LIG         0.1500
     39 N4          1.9040   -2.8910    1.0060 N.ar      1 LIG        -0.6200
     40 C16         1.2620   -4.0430    1.2270 C.ar      1 LIG         0.7710
     41 N5          1.7550   -4.8910    2.1220 N.pl3     1 LIG        -0.9000
     42 H18         1.3430   -5.8010    2.3690 H         1 LIG         0.4000
     43 H19         2.6220   -4.6030    2.6060 H         1 LIG         0.4000
     44 N6          0.1380   -4.4170    0.5950 N.ar      1 LIG        -0.1250
     45 H20        -0.2820   -5.3190    0.8270 H         1 LIG         0.4570
     46 C17        -0.4250   -3.5700   -0.3360 C.ar      1 LIG         0.3070
     47 C18        -1.5710   -3.6840   -1.1190 C.2       1 LIG        -0.1500
     48 H21        -2.2510   -4.4960   -1.1600 H         1 LIG         0.1500
     49 C19        -1.6660   -2.5180   -1.8260 C.2       1 LIG        -0.3020
     50 H22        -2.4090   -2.1990   -2.5160 H         1 LIG         0.1500
     51 N7         -2.5360    0.5330   -0.9880 N.ar      1 LIG        -0.6200
@<TRIPOS>BOND
  1   1   2  1   
  2   1   6  1   
  3   2   3  1   
  4   2   4  1   
  5   2   5  1   
  6   6   7  ar  
  7   6  51  ar  
  8   7   8  1   
  9   7  13  ar  
 10   8   9  1   
 11   9  10  1   
 12   9  11  1   
 13   9  12  1   
 14  13  14  1   
 15  13  15  ar  
 16  15  16  1   
 17  15  17  ar  
 18  17  18  1   
 19  17  51  ar  
 20  18  19  1   
 21  18  20  1   
 22  18  21  1   
 23  21  22  1   
 24  21  49  1   
 25  22  23  ar  
 26  22  46  ar  
 27  23  24  1   
 28  23  39  ar  
 29  24  25  1   
 30  24  26  1   
 31  26  27  1   
 32  26  28  1   
 33  26  29  1   
 34  29  30  2   
 35  29  37  1   
 36  30  31  1   
 37  31  32  1   
 38  32  33  1   
 39  32  37  2   
 40  33  34  1   
 41  33  35  1   
 42  33  36  1   
 43  37  38  1   
 44  39  40  ar  
 45  40  41  1   
 46  40  44  ar  
 47  41  42  1   
 48  41  43  1   
 49  44  45  1   
 50  44  46  ar  
 51  46  47  1   
 52  47  48  1   
 53  47  49  2   
 54  49  50  1   
@<TRIPOS>SUBSTRUCTURE
  1 ****  15 GROUP 4 **** **** 0

# MOE 2018.01 (io_trps.svl 2018.01)

@<TRIPOS>MOLECULE
CHEMBL4103135
47 50 1 0 0 
SMALL
USER_CHARGES


@<TRIPOS>ATOM
      1 O1         -3.6920    3.5260   -0.7970 O.3       1 LIG        -0.3630
      2 C1         -4.7990    3.2830    0.1090 C.3       1 LIG         0.0400
      3 H1         -5.6590    3.8460   -0.2530 H         1 LIG         0.0800
      4 H2         -4.5060    3.6230    1.1030 H         1 LIG         0.0800
      5 H3         -5.0110    2.2140    0.1120 H         1 LIG         0.0800
      6 C2         -2.4610    2.9580   -0.6230 C.ar      1 LIG         0.3920
      7 N1         -2.2830    2.1110    0.3960 N.ar      1 LIG        -0.6200
      8 C3         -1.0810    1.5520    0.5700 C.ar      1 LIG         0.1660
      9 C4         -0.9180    0.5930    1.7350 C.3       1 LIG         0.2390
     10 H4         -1.4010    1.0290    2.5980 H         1 LIG         0.0800
     11 H5          0.1260    0.3870    1.9090 H         1 LIG         0.0800
     12 N2         -1.6360   -0.6370    1.3560 N.pl3     1 LIG         0.0480
     13 C5         -1.1820   -1.7240    0.5930 C.ar      1 LIG        -0.1520
     14 C6          0.0630   -2.0780    0.0260 C.ar      1 LIG         0.4100
     15 N3          1.1640   -1.3450    0.2320 N.pl3     1 LIG        -0.8690
     16 H6          1.1680   -0.5690    0.9100 H         1 LIG         0.4000
     17 C7          2.5020   -1.6500   -0.2770 C.3       1 LIG         0.3900
     18 H7          2.8920   -2.5330    0.2120 H         1 LIG         0.0800
     19 H8          2.4770   -1.7300   -1.3570 H         1 LIG         0.0800
     20 C8          3.3590   -0.4520    0.1160 C.2       1 LIG         0.1080
     21 N4          3.1020    0.3520    1.1020 N.2       1 LIG        -0.4100
     22 O2          4.0750    1.2690    1.1350 O.3       1 LIG        -0.0190
     23 C9          4.9550    1.0340    0.1610 C.2       1 LIG        -0.0400
     24 C10         6.1600    1.9230   -0.0280 C.3       1 LIG        -0.0600
     25 H9          6.7600    1.5290   -0.8480 H         1 LIG         0.0800
     26 H10         6.7280    1.9220    0.9020 H         1 LIG         0.0800
     27 H11         5.8050    2.9280   -0.2560 H         1 LIG         0.0800
     28 C11         4.5350   -0.0500   -0.5060 C.2       1 LIG        -0.1500
     29 H12         5.0100   -0.5020   -1.3380 H         1 LIG         0.1500
     30 N5          0.1780   -3.1670   -0.7100 N.ar      1 LIG        -0.6200
     31 C12        -0.9060   -3.9310   -0.8790 C.ar      1 LIG         0.7710
     32 N6         -0.8090   -5.0280   -1.6220 N.pl3     1 LIG        -0.9000
     33 H13        -1.5800   -5.6790   -1.8220 H         1 LIG         0.4000
     34 H14         0.1160   -5.2260   -2.0380 H         1 LIG         0.4000
     35 N7         -2.1070   -3.6710   -0.3380 N.ar      1 LIG        -0.1250
     36 H15        -2.8790   -4.3170   -0.5170 H         1 LIG         0.4570
     37 C13        -2.2700   -2.5370    0.4280 C.ar      1 LIG         0.3070
     38 C14        -3.3800   -2.0160    1.0880 C.2       1 LIG        -0.1500
     39 H16        -4.3570   -2.4260    1.1390 H         1 LIG         0.1500
     40 C15        -2.9700   -0.8420    1.6550 C.2       1 LIG        -0.3020
     41 H17        -3.5190   -0.1310    2.2220 H         1 LIG         0.1500
     42 C16        -0.0160    1.8420   -0.2860 C.ar      1 LIG        -0.1500
     43 H18         0.9340    1.4000   -0.1330 H         1 LIG         0.1500
     44 C17        -0.1960    2.7200   -1.3480 C.ar      1 LIG        -0.1500
     45 H19         0.6020    2.9510   -2.0070 H         1 LIG         0.1500
     46 C18        -1.4480    3.2870   -1.5170 C.ar      1 LIG        -0.1500
     47 H20        -1.6430    3.9630   -2.3080 H         1 LIG         0.1500
@<TRIPOS>BOND
  1   1   2  1   
  2   1   6  1   
  3   2   3  1   
  4   2   4  1   
  5   2   5  1   
  6   6   7  ar  
  7   6  46  ar  
  8   7   8  ar  
  9   8   9  1   
 10   8  42  ar  
 11   9  10  1   
 12   9  11  1   
 13   9  12  1   
 14  12  13  1   
 15  12  40  1   
 16  13  14  ar  
 17  13  37  ar  
 18  14  15  1   
 19  14  30  ar  
 20  15  16  1   
 21  15  17  1   
 22  17  18  1   
 23  17  19  1   
 24  17  20  1   
 25  20  21  2   
 26  20  28  1   
 27  21  22  1   
 28  22  23  1   
 29  23  24  1   
 30  23  28  2   
 31  24  25  1   
 32  24  26  1   
 33  24  27  1   
 34  28  29  1   
 35  30  31  ar  
 36  31  32  1   
 37  31  35  ar  
 38  32  33  1   
 39  32  34  1   
 40  35  36  1   
 41  35  37  ar  
 42  37  38  1   
 43  38  39  1   
 44  38  40  2   
 45  40  41  1   
 46  42  43  1   
 47  42  44  ar  
 48  44  45  1   
 49  44  46  ar  
 50  46  47  1   
@<TRIPOS>SUBSTRUCTURE
  1 ****  15 GROUP 4 **** **** 0

# MOE 2018.01 (io_trps.svl 2018.01)

@<TRIPOS>MOLECULE
CHEMBL1836881
61 65 1 0 0 
SMALL
USER_CHARGES


@<TRIPOS>ATOM
      1 F1         -5.3460   -2.3040   -2.4790 F         1 LIG        -0.3400
      2 C1         -4.7070   -2.5780   -1.3230 C.3       1 LIG         1.1640
      3 F2         -5.3310   -3.6010   -0.7070 F         1 LIG        -0.3400
      4 F3         -3.4370   -2.9510   -1.6190 F         1 LIG        -0.3400
      5 C2         -4.6560   -1.2990   -0.4470 C.ar      1 LIG         0.1660
      6 N1         -5.1300   -1.3050    0.8460 N.ar      1 LIG        -0.6200
      7 C3         -5.0530   -0.2080    1.5880 C.ar      1 LIG         0.4100
      8 N2         -5.5660   -0.3320    2.8480 N.pl3     1 LIG        -0.9000
      9 H1         -6.1320   -1.1880    2.9300 H         1 LIG         0.4000
     10 H2         -6.0280    0.5120    3.2060 H         1 LIG         0.4000
     11 C4         -4.4780    0.9710    1.0910 C.ar      1 LIG         0.1170
     12 N3         -4.2120    2.2240    1.6480 N.am      1 LIG        -0.5470
     13 H3         -4.3930    2.5440    2.6080 H         1 LIG         0.3700
     14 C5         -3.5650    2.9950    0.7390 C.2       1 LIG         0.6900
     15 O1         -3.0940    4.1130    0.9340 O.2       1 LIG        -0.5700
     16 N4         -3.4590    2.2590   -0.4190 N.am      1 LIG        -0.4770
     17 C6         -2.7690    2.7520   -1.6020 C.3       1 LIG         0.2840
     18 H4         -3.1130    2.2210   -2.4800 H         1 LIG         0.0800
     19 H5         -2.9070    3.8230   -1.6870 H         1 LIG         0.0800
     20 C7         -1.3080    2.4340   -1.3330 C.ar      1 LIG        -0.1440
     21 C8         -0.5350    3.2960   -0.5840 C.ar      1 LIG         0.2110
     22 H6         -0.8700    4.2230   -0.1810 H         1 LIG         0.1500
     23 N5          0.7570    2.9640   -0.2900 N.ar      1 LIG        -0.1790
     24 H7          1.3320    3.5870    0.2950 H         1 LIG         0.4570
     25 C9          1.3160    1.8130   -0.6990 C.ar      1 LIG         0.4610
     26 N6          2.5860    1.5860   -0.2580 N.pl3     1 LIG        -0.8380
     27 C10         3.2500    0.2640   -0.3590 C.3       1 LIG         0.2890
     28 C11         2.5530   -0.7640    0.5940 C.3       1 LIG         0.3430
     29 H8          1.5360   -0.9140    0.2540 H         1 LIG         0.0800
     30 H9          2.5770   -0.3360    1.5890 H         1 LIG         0.0800
     31 N7          3.2900   -2.0700    0.5930 N.4       1 LIG        -0.9590
     32 H10         4.2900   -1.9260    0.6980 H         1 LIG         0.4500
     33 C12         3.0090   -2.8190   -0.6650 C.3       1 LIG         0.3430
     34 H11         2.5460   -2.2010   -1.4260 H         1 LIG         0.0800
     35 H12         3.9180   -3.2990   -1.0110 H         1 LIG         0.0800
     36 C13         2.0390   -3.9140   -0.2330 C.3       1 LIG        -0.1600
     37 H13         1.0200   -3.5260   -0.1670 H         1 LIG         0.0800
     38 H14         2.0750   -4.7720   -0.9060 H         1 LIG         0.0800
     39 C14         2.5760   -4.2580    1.1470 C.3       1 LIG        -0.1600
     40 H15         3.5280   -4.7890    1.0730 H         1 LIG         0.0800
     41 H16         1.8600   -4.8420    1.7270 H         1 LIG         0.0800
     42 C15         2.7820   -2.8700    1.7410 C.3       1 LIG         0.3430
     43 H17         3.5050   -2.9180    2.5490 H         1 LIG         0.0800
     44 H18         1.8140   -2.5010    2.0630 H         1 LIG         0.0800
     45 C16         4.6690    0.5500    0.1570 C.3       1 LIG        -0.1600
     46 H19         4.7140    0.5090    1.2480 H         1 LIG         0.0800
     47 H20         5.4100   -0.1170   -0.2850 H         1 LIG         0.0800
     48 C17         4.8870    1.9910   -0.2990 C.3       1 LIG        -0.1600
     49 H21         5.0460    2.0290   -1.3790 H         1 LIG         0.0800
     50 H22         5.7260    2.4590    0.2200 H         1 LIG         0.0800
     51 C18         3.5580    2.6590    0.0570 C.3       1 LIG         0.2090
     52 H23         3.4290    3.5320   -0.5720 H         1 LIG         0.0800
     53 H24         3.5470    2.8730    1.1200 H         1 LIG         0.0800
     54 C19         0.5600    0.9260   -1.5010 C.ar      1 LIG        -0.1500
     55 H25         1.0030    0.0370   -1.8670 H         1 LIG         0.1500
     56 C20        -0.7420    1.2330   -1.8110 C.ar      1 LIG        -0.1500
     57 H26        -1.3230    0.5700   -2.4060 H         1 LIG         0.1500
     58 C21        -4.0050    0.9970   -0.1930 C.ar      1 LIG         0.1170
     59 C22        -4.0940   -0.1390   -0.9950 C.ar      1 LIG        -0.1500
     60 H27        -3.7370   -0.1230   -1.9920 H         1 LIG         0.1500
     61 H28         3.2820   -0.0800   -1.3850 H         1 LIG         0.0800
@<TRIPOS>BOND
  1   1   2  1   
  2   2   3  1   
  3   2   4  1   
  4   2   5  1   
  5   5   6  ar  
  6   5  59  ar  
  7   6   7  ar  
  8   7   8  1   
  9   7  11  ar  
 10   8   9  1   
 11   8  10  1   
 12  11  12  1   
 13  11  58  ar  
 14  12  13  1   
 15  12  14  am  
 16  14  15  2   
 17  14  16  am  
 18  16  17  1   
 19  16  58  1   
 20  17  18  1   
 21  17  19  1   
 22  17  20  1   
 23  20  21  ar  
 24  20  56  ar  
 25  21  22  1   
 26  21  23  ar  
 27  23  24  1   
 28  23  25  ar  
 29  25  26  1   
 30  25  54  ar  
 31  26  27  1   
 32  26  51  1   
 33  27  28  1   
 34  27  45  1   
 35  27  61  1   
 36  28  29  1   
 37  28  30  1   
 38  28  31  1   
 39  31  32  1   
 40  31  33  1   
 41  31  42  1   
 42  33  34  1   
 43  33  35  1   
 44  33  36  1   
 45  36  37  1   
 46  36  38  1   
 47  36  39  1   
 48  39  40  1   
 49  39  41  1   
 50  39  42  1   
 51  42  43  1   
 52  42  44  1   
 53  45  46  1   
 54  45  47  1   
 55  45  48  1   
 56  48  49  1   
 57  48  50  1   
 58  48  51  1   
 59  51  52  1   
 60  51  53  1   
 61  54  55  1   
 62  54  56  ar  
 63  56  57  1   
 64  58  59  ar  
 65  59  60  1   
@<TRIPOS>SUBSTRUCTURE
  1 ****  56 GROUP 4 **** **** 0

# MOE 2018.01 (io_trps.svl 2018.01)

@<TRIPOS>MOLECULE
CHEMBL1836879
61 64 1 0 0 
SMALL
USER_CHARGES


@<TRIPOS>ATOM
      1 F1         -8.9800   -2.8520   -0.2440 F         1 LIG        -0.3400
      2 C1         -7.8600   -2.5530    0.4460 C.3       1 LIG         1.1640
      3 F2         -8.1580   -2.4910    1.7610 F         1 LIG        -0.3400
      4 F3         -6.9570   -3.5410    0.2640 F         1 LIG        -0.3400
      5 C2         -7.2300   -1.2050    0.0030 C.ar      1 LIG         0.1660
      6 N1         -7.8300   -0.4300   -0.9650 N.ar      1 LIG        -0.6200
      7 C3         -7.2830    0.7200   -1.3300 C.ar      1 LIG         0.4100
      8 N2         -7.9740    1.4030   -2.2900 N.pl3     1 LIG        -0.9000
      9 H1         -8.9190    1.0110   -2.4110 H         1 LIG         0.4000
     10 H2         -7.9490    2.4240   -2.1930 H         1 LIG         0.4000
     11 C4         -6.0900    1.1780   -0.7540 C.ar      1 LIG         0.1170
     12 N3         -5.3050    2.3160   -0.9430 N.am      1 LIG        -0.5470
     13 H3         -5.4560    3.0890   -1.6030 H         1 LIG         0.3700
     14 C5         -4.2310    2.2720   -0.1200 C.2       1 LIG         0.6900
     15 O1         -3.3280    3.1000   -0.0740 O.2       1 LIG        -0.5700
     16 N4         -4.3130    1.0940    0.5990 N.am      1 LIG        -0.4770
     17 C6         -3.4320    0.7480    1.7180 C.3       1 LIG         0.2840
     18 H4         -3.5810    1.4780    2.5040 H         1 LIG         0.0800
     19 H5         -3.6400   -0.2600    2.0530 H         1 LIG         0.0800
     20 C7         -1.9810    0.8130    1.2470 C.ar      1 LIG        -0.1440
     21 C8         -1.6130    0.5250   -0.0520 C.ar      1 LIG         0.2110
     22 H6         -2.2820    0.2340   -0.8260 H         1 LIG         0.1500
     23 N5         -0.3050    0.6380   -0.4300 N.ar      1 LIG        -0.1790
     24 H7         -0.0350    0.5030   -1.4130 H         1 LIG         0.4570
     25 C9          0.6620    0.9970    0.4270 C.ar      1 LIG         0.4610
     26 N6          1.9190    1.0700   -0.0970 N.pl3     1 LIG        -0.8380
     27 C10         2.4730    0.1050   -1.1080 C.3       1 LIG         0.2090
     28 H8          1.8010   -0.7300   -1.2610 H         1 LIG         0.0800
     29 H9          2.7000    0.6250   -2.0310 H         1 LIG         0.0800
     30 C11         3.7970   -0.4810   -0.5340 C.3       1 LIG         0.3430
     31 H10         4.2220   -1.1350   -1.2860 H         1 LIG         0.0800
     32 H11         3.5660   -1.0250    0.3750 H         1 LIG         0.0800
     33 N7          4.7550    0.6430   -0.2290 N.4       1 LIG        -0.9590
     34 H12         4.9510    1.2010   -1.0520 H         1 LIG         0.4500
     35 C12         6.0030    0.0390    0.2950 C.3       1 LIG         0.3430
     36 H13         6.6230    0.8010    0.7540 H         1 LIG         0.0800
     37 H14         5.7710   -0.7630    0.9890 H         1 LIG         0.0800
     38 C13         6.7760   -0.5300   -0.9120 C.3       1 LIG        -0.1600
     39 H15         7.7450   -0.0370   -0.9870 H         1 LIG         0.0800
     40 H16         6.2490   -0.4160   -1.8600 H         1 LIG         0.0800
     41 C14         6.9980   -2.0210   -0.6340 C.3       1 LIG         0.1200
     42 H17         7.6390   -2.1460    0.2430 H         1 LIG         0.0800
     43 H18         7.4900   -2.4780   -1.4970 H         1 LIG         0.0800
     44 O2          5.7340   -2.6280   -0.4090 O.3       1 LIG        -0.5600
     45 C15         5.8410   -4.0320   -0.1970 C.3       1 LIG         0.0400
     46 H19         4.8490   -4.4510   -0.0210 H         1 LIG         0.0800
     47 H20         6.4660   -4.2420    0.6740 H         1 LIG         0.0800
     48 H21         6.2720   -4.5190   -1.0750 H         1 LIG         0.0800
     49 C16         4.1640    1.4670    0.8730 C.3       1 LIG         0.3430
     50 H22         3.8970    0.8320    1.7100 H         1 LIG         0.0800
     51 H23         4.8570    2.2490    1.1630 H         1 LIG         0.0800
     52 C17         2.8660    2.1460    0.3480 C.3       1 LIG         0.2090
     53 H24         3.1230    2.7720   -0.4980 H         1 LIG         0.0800
     54 H25         2.4420    2.7390    1.1490 H         1 LIG         0.0800
     55 C18         0.3220    1.2900    1.7670 C.ar      1 LIG        -0.1500
     56 H26         1.0790    1.5710    2.4530 H         1 LIG         0.1500
     57 C19        -0.9870    1.1970    2.1720 C.ar      1 LIG        -0.1500
     58 H27        -1.2520    1.4200    3.1780 H         1 LIG         0.1500
     59 C20        -5.4730    0.4210    0.2070 C.ar      1 LIG         0.1170
     60 C21        -6.0370   -0.7890    0.6090 C.ar      1 LIG        -0.1500
     61 H28        -5.5720   -1.3790    1.3560 H         1 LIG         0.1500
@<TRIPOS>BOND
  1   1   2  1   
  2   2   3  1   
  3   2   4  1   
  4   2   5  1   
  5   5   6  ar  
  6   5  60  ar  
  7   6   7  ar  
  8   7   8  1   
  9   7  11  ar  
 10   8   9  1   
 11   8  10  1   
 12  11  12  1   
 13  11  59  ar  
 14  12  13  1   
 15  12  14  am  
 16  14  15  2   
 17  14  16  am  
 18  16  17  1   
 19  16  59  1   
 20  17  18  1   
 21  17  19  1   
 22  17  20  1   
 23  20  21  ar  
 24  20  57  ar  
 25  21  22  1   
 26  21  23  ar  
 27  23  24  1   
 28  23  25  ar  
 29  25  26  1   
 30  25  55  ar  
 31  26  27  1   
 32  26  52  1   
 33  27  28  1   
 34  27  29  1   
 35  27  30  1   
 36  30  31  1   
 37  30  32  1   
 38  30  33  1   
 39  33  34  1   
 40  33  35  1   
 41  33  49  1   
 42  35  36  1   
 43  35  37  1   
 44  35  38  1   
 45  38  39  1   
 46  38  40  1   
 47  38  41  1   
 48  41  42  1   
 49  41  43  1   
 50  41  44  1   
 51  44  45  1   
 52  45  46  1   
 53  45  47  1   
 54  45  48  1   
 55  49  50  1   
 56  49  51  1   
 57  49  52  1   
 58  52  53  1   
 59  52  54  1   
 60  55  56  1   
 61  55  57  ar  
 62  57  58  1   
 63  59  60  ar  
 64  60  61  1   
@<TRIPOS>SUBSTRUCTURE
  1 ****  21 GROUP 4 **** **** 0

# MOE 2018.01 (io_trps.svl 2018.01)

@<TRIPOS>MOLECULE
CHEMBL2315166
61 64 1 0 0 
SMALL
USER_CHARGES


@<TRIPOS>ATOM
      1 O1         -0.4720    5.1270   -0.2950 O.2       1 LIG        -0.5700
      2 C1         -1.1520    4.1430   -0.0280 C.2       1 LIG         0.6900
      3 N1         -1.3220    3.0320   -0.8170 N.am      1 LIG        -0.4770
      4 C2         -0.6750    2.8300   -2.0980 C.3       1 LIG         0.2840
      5 H1         -1.3390    2.2860   -2.7590 H         1 LIG         0.0800
      6 H2         -0.3610    3.7810   -2.5120 H         1 LIG         0.0800
      7 C3          0.5380    1.9840   -1.7570 C.ar      1 LIG        -0.1440
      8 C4          0.4430    0.6100   -1.7110 C.ar      1 LIG         0.2110
      9 H3         -0.4350    0.0510   -1.9340 H         1 LIG         0.1500
     10 N2          1.5300   -0.1320   -1.3420 N.ar      1 LIG        -0.1790
     11 H4          1.4750   -1.1600   -1.3380 H         1 LIG         0.4570
     12 C5          2.7030    0.4300   -1.0120 C.ar      1 LIG         0.4610
     13 N3          3.6910   -0.4370   -0.6460 N.pl3     1 LIG        -0.8380
     14 C6          3.4740   -1.6300    0.2430 C.3       1 LIG         0.2090
     15 H5          2.4500   -1.6760    0.5910 H         1 LIG         0.0800
     16 H6          3.7710   -2.5340   -0.2750 H         1 LIG         0.0800
     17 C7          4.3800   -1.4570    1.5030 C.3       1 LIG         0.3430
     18 H7          4.2680   -2.3420    2.1200 H         1 LIG         0.0800
     19 H8          4.0630   -0.5600    2.0230 H         1 LIG         0.0800
     20 N4          5.8110   -1.3170    1.0670 N.4       1 LIG        -0.9590
     21 H9          6.1060   -2.1160    0.5120 H         1 LIG         0.4500
     22 C8          6.6480   -1.1960    2.2870 C.3       1 LIG         0.2630
     23 H10         6.3140   -0.3370    2.8580 H         1 LIG         0.0800
     24 H11         7.6820   -1.0700    1.9830 H         1 LIG         0.0800
     25 H12         6.5400   -2.1050    2.8700 H         1 LIG         0.0800
     26 C9          5.9500   -0.0400    0.2880 C.3       1 LIG         0.3430
     27 H13         5.5540    0.7910    0.8600 H         1 LIG         0.0800
     28 H14         6.9880    0.1150    0.0130 H         1 LIG         0.0800
     29 C10         5.1190   -0.1660   -1.0220 C.3       1 LIG         0.2090
     30 H15         5.5060   -1.0010   -1.5950 H         1 LIG         0.0800
     31 H16         5.2120    0.7580   -1.5780 H         1 LIG         0.0800
     32 C11         2.8410    1.8360   -1.0770 C.ar      1 LIG        -0.1500
     33 H17         3.7640    2.2890   -0.8240 H         1 LIG         0.1500
     34 C12         1.7630    2.6060   -1.4390 C.ar      1 LIG        -0.1500
     35 H18         1.8420    3.6680   -1.4660 H         1 LIG         0.1500
     36 C13        -2.0930    2.1230   -0.1300 C.ar      1 LIG         0.4270
     37 N5         -2.4400    0.9000   -0.5250 N.ar      1 LIG        -0.6200
     38 C14        -3.1600    0.2350    0.3810 C.ar      1 LIG         0.7200
     39 N6         -3.5580   -1.0260    0.0850 N.pl3     1 LIG        -0.8690
     40 H19        -4.1780   -1.3540    0.8360 H         1 LIG         0.4000
     41 C15        -4.1300   -1.2500   -1.2380 C.3       1 LIG         0.2090
     42 H20        -4.8890   -0.4990   -1.4720 H         1 LIG         0.0800
     43 H21        -3.3480   -1.2290   -1.9990 H         1 LIG         0.0800
     44 C16        -4.7670   -2.6440   -1.1840 C.3       1 LIG        -0.1600
     45 H22        -5.0560   -2.9170   -2.2000 H         1 LIG         0.0800
     46 H23        -4.0270   -3.3680   -0.8390 H         1 LIG         0.0800
     47 C17        -6.0170   -2.7070   -0.2870 C.3       1 LIG        -0.1600
     48 H24        -5.7490   -2.5000    0.7510 H         1 LIG         0.0800
     49 H25        -6.7440   -1.9610   -0.6150 H         1 LIG         0.0800
     50 C18        -6.6590   -4.0960   -0.3610 C.3       1 LIG        -0.2400
     51 H26        -5.9510   -4.8550   -0.0240 H         1 LIG         0.0800
     52 H27        -6.9630   -4.3160   -1.3850 H         1 LIG         0.0800
     53 H28        -7.5410   -4.1260    0.2820 H         1 LIG         0.0800
     54 N7         -3.5410    0.6570    1.5970 N.ar      1 LIG        -0.6200
     55 C19        -3.1830    1.8760    1.9500 C.ar      1 LIG         0.4100
     56 N8         -3.5880    2.2760    3.1910 N.pl3     1 LIG        -0.9000
     57 H29        -3.9160    1.4920    3.7730 H         1 LIG         0.4000
     58 H30        -2.9920    2.9650    3.6650 H         1 LIG         0.4000
     59 C20        -2.4250    2.6620    1.0810 C.ar      1 LIG         0.1170
     60 N9         -1.8410    3.9370    1.1240 N.am      1 LIG        -0.5470
     61 H31        -1.9120    4.6620    1.8490 H         1 LIG         0.3700
@<TRIPOS>BOND
  1   1   2  2   
  2   2   3  am  
  3   2  60  am  
  4   3   4  1   
  5   3  36  1   
  6   4   5  1   
  7   4   6  1   
  8   4   7  1   
  9   7   8  ar  
 10   7  34  ar  
 11   8   9  1   
 12   8  10  ar  
 13  10  11  1   
 14  10  12  ar  
 15  12  13  1   
 16  12  32  ar  
 17  13  14  1   
 18  13  29  1   
 19  14  15  1   
 20  14  16  1   
 21  14  17  1   
 22  17  18  1   
 23  17  19  1   
 24  17  20  1   
 25  20  21  1   
 26  20  22  1   
 27  20  26  1   
 28  22  23  1   
 29  22  24  1   
 30  22  25  1   
 31  26  27  1   
 32  26  28  1   
 33  26  29  1   
 34  29  30  1   
 35  29  31  1   
 36  32  33  1   
 37  32  34  ar  
 38  34  35  1   
 39  36  37  ar  
 40  36  59  ar  
 41  37  38  ar  
 42  38  39  1   
 43  38  54  ar  
 44  39  40  1   
 45  39  41  1   
 46  41  42  1   
 47  41  43  1   
 48  41  44  1   
 49  44  45  1   
 50  44  46  1   
 51  44  47  1   
 52  47  48  1   
 53  47  49  1   
 54  47  50  1   
 55  50  51  1   
 56  50  52  1   
 57  50  53  1   
 58  54  55  ar  
 59  55  56  1   
 60  55  59  ar  
 61  56  57  1   
 62  56  58  1   
 63  59  60  1   
 64  60  61  1   
@<TRIPOS>SUBSTRUCTURE
  1 ****   8 GROUP 4 **** **** 0

# MOE 2018.01 (io_trps.svl 2018.01)

@<TRIPOS>MOLECULE
CHEMBL4070546
44 47 1 0 0 
SMALL
USER_CHARGES


@<TRIPOS>ATOM
      1 N1          0.7320   -0.5280    0.8270 N.pl3     1 LIG        -0.8690
      2 H1          0.6510   -1.1920    0.0470 H         1 LIG         0.4000
      3 C1          1.8680   -0.8940    1.7300 C.3       1 LIG         0.3890
      4 H2          1.9900   -0.1870    2.5400 H         1 LIG         0.0800
      5 H3          1.7270   -1.9060    2.0860 H         1 LIG         0.0800
      6 C2          3.1160   -0.8760    0.8610 C.2       1 LIG         0.2980
      7 O1          3.2860   -1.8580   -0.0490 O.3       1 LIG        -0.2800
      8 C3          4.4260   -1.5820   -0.6580 C.2       1 LIG        -0.0400
      9 C4          4.9640   -2.4790   -1.7460 C.3       1 LIG        -0.0600
     10 H4          5.9100   -2.0680   -2.1010 H         1 LIG         0.0800
     11 H5          4.2320   -2.5120   -2.5530 H         1 LIG         0.0800
     12 H6          5.1110   -3.4720   -1.3220 H         1 LIG         0.0800
     13 C5          4.9100   -0.4510   -0.1190 C.2       1 LIG         0.0770
     14 H7          5.8140    0.0320   -0.3910 H         1 LIG         0.1500
     15 N2          4.0630   -0.0040    0.8450 N.2       1 LIG        -0.5650
     16 C6          0.4130    0.7600    0.5820 C.ar      1 LIG         0.4100
     17 N3          0.9970    1.6930    1.3030 N.ar      1 LIG        -0.6200
     18 C7          0.8250    2.9740    0.9690 C.ar      1 LIG         0.7710
     19 N4          1.4420    3.9110    1.6760 N.pl3     1 LIG        -0.9000
     20 H8          1.4080    4.9210    1.4870 H         1 LIG         0.4000
     21 H9          2.0640    3.5800    2.4340 H         1 LIG         0.4000
     22 N5          0.0610    3.3840   -0.0540 N.ar      1 LIG        -0.1250
     23 H10         0.0090    4.3870   -0.2530 H         1 LIG         0.4570
     24 C8         -0.6400    2.4470   -0.7870 C.ar      1 LIG         0.3070
     25 C9         -0.4840    1.1270   -0.4490 C.ar      1 LIG        -0.1520
     26 N6         -1.3510    0.4150   -1.2900 N.pl3     1 LIG         0.0480
     27 C10        -1.6810   -1.0170   -1.2580 C.3       1 LIG         0.2390
     28 H11        -2.0060   -1.3330   -2.2400 H         1 LIG         0.0800
     29 H12        -0.8300   -1.5870   -0.9170 H         1 LIG         0.0800
     30 C11        -2.8200   -1.1540   -0.2520 C.ar      1 LIG         0.2180
     31 N7         -4.0880   -1.1010   -0.7330 N.ar      1 LIG        -0.1790
     32 H13        -4.2420   -0.9760   -1.7540 H         1 LIG         0.4570
     33 C12        -5.1800   -1.2030    0.0550 C.ar      1 LIG         0.2110
     34 H14        -6.1200   -1.1490   -0.4430 H         1 LIG         0.1500
     35 C13        -5.0180   -1.3660    1.4230 C.ar      1 LIG        -0.1500
     36 H15        -5.8690   -1.4470    2.0540 H         1 LIG         0.1500
     37 C14        -3.7410   -1.4240    1.9640 C.ar      1 LIG        -0.1500
     38 H16        -3.6060   -1.5490    3.0130 H         1 LIG         0.1500
     39 C15        -2.6430   -1.3170    1.1200 C.ar      1 LIG        -0.1500
     40 H17        -1.6660   -1.3600    1.5330 H         1 LIG         0.1500
     41 C16        -1.9750    1.3110   -2.1380 C.2       1 LIG        -0.3020
     42 H18        -2.6640    1.0000   -2.8840 H         1 LIG         0.1500
     43 C17        -1.5450    2.5750   -1.8380 C.2       1 LIG        -0.1500
     44 H19        -1.8490    3.4720   -2.3190 H         1 LIG         0.1500
@<TRIPOS>BOND
  1   1   2  1   
  2   1   3  1   
  3   1  16  1   
  4   3   4  1   
  5   3   5  1   
  6   3   6  1   
  7   6   7  1   
  8   6  15  2   
  9   7   8  1   
 10   8   9  1   
 11   8  13  2   
 12   9  10  1   
 13   9  11  1   
 14   9  12  1   
 15  13  14  1   
 16  13  15  1   
 17  16  17  ar  
 18  16  25  ar  
 19  17  18  ar  
 20  18  19  1   
 21  18  22  ar  
 22  19  20  1   
 23  19  21  1   
 24  22  23  1   
 25  22  24  ar  
 26  24  25  ar  
 27  24  43  1   
 28  25  26  1   
 29  26  27  1   
 30  26  41  1   
 31  27  28  1   
 32  27  29  1   
 33  27  30  1   
 34  30  31  ar  
 35  30  39  ar  
 36  31  32  1   
 37  31  33  ar  
 38  33  34  1   
 39  33  35  ar  
 40  35  36  1   
 41  35  37  ar  
 42  37  38  1   
 43  37  39  ar  
 44  39  40  1   
 45  41  42  1   
 46  41  43  2   
 47  43  44  1   
@<TRIPOS>SUBSTRUCTURE
  1 ****  16 GROUP 4 **** **** 0

# MOE 2018.01 (io_trps.svl 2018.01)

@<TRIPOS>MOLECULE
CHEMBL4094458
44 47 1 0 0 
SMALL
USER_CHARGES


@<TRIPOS>ATOM
      1 N1          0.0990   -1.1940   -0.4640 N.pl3     1 LIG        -0.8690
      2 H1          0.3100   -0.9200   -1.4370 H         1 LIG         0.4000
      3 C1          1.1580   -2.0650    0.1110 C.3       1 LIG         0.3900
      4 H2          1.0230   -2.1770    1.1800 H         1 LIG         0.0800
      5 H3          1.1770   -3.0140   -0.4120 H         1 LIG         0.0800
      6 C2          2.4740   -1.3370   -0.1330 C.2       1 LIG         0.1080
      7 N2          2.5830   -0.0790   -0.4280 N.2       1 LIG        -0.4100
      8 O1          3.8860    0.1920   -0.5540 O.3       1 LIG        -0.0190
      9 C3          4.6040   -0.9100   -0.3330 C.2       1 LIG        -0.0400
     10 C4          6.1120   -0.8900   -0.4120 C.3       1 LIG        -0.0600
     11 H4          6.4900   -1.8900   -0.1980 H         1 LIG         0.0800
     12 H5          6.4830   -0.1740    0.3220 H         1 LIG         0.0800
     13 H6          6.3940   -0.5820   -1.4200 H         1 LIG         0.0800
     14 C5          3.7420   -1.9010   -0.0610 C.2       1 LIG        -0.1500
     15 H7          3.9910   -2.9070    0.1610 H         1 LIG         0.1500
     16 C6         -1.1980   -1.3210   -0.1270 C.ar      1 LIG         0.4100
     17 N3         -1.5490   -2.3130    0.6640 N.ar      1 LIG        -0.6200
     18 C7         -2.8560   -2.5070    0.9010 C.ar      1 LIG         0.7710
     19 N4         -3.2260   -3.5090    1.6870 N.pl3     1 LIG        -0.9000
     20 H8         -4.1990   -3.7470    1.9280 H         1 LIG         0.4000
     21 H9         -2.4760   -4.1040    2.0770 H         1 LIG         0.4000
     22 N5         -3.8370   -1.7450    0.3850 N.ar      1 LIG        -0.1250
     23 H10        -4.8100   -1.9810    0.6030 H         1 LIG         0.4570
     24 C8         -3.5030   -0.6540   -0.3940 C.ar      1 LIG         0.3070
     25 C9         -2.1710   -0.4320   -0.6270 C.ar      1 LIG        -0.1520
     26 N6         -2.1020    0.7680   -1.3440 N.pl3     1 LIG         0.0480
     27 C10        -0.9020    1.5380   -1.7040 C.3       1 LIG         0.2390
     28 H11        -0.1150    0.8790   -2.0420 H         1 LIG         0.0800
     29 H12        -1.1660    2.2700   -2.4560 H         1 LIG         0.0800
     30 C11        -0.4920    2.2710   -0.4320 C.ar      1 LIG         0.2180
     31 N7          0.5070    1.7330    0.3060 N.ar      1 LIG        -0.1790
     32 H13         0.9670    0.8390   -0.0120 H         1 LIG         0.4570
     33 C12         0.9680    2.2850    1.4430 C.ar      1 LIG         0.2110
     34 H14         1.7680    1.7650    1.9160 H         1 LIG         0.1500
     35 C13         0.3900    3.4580    1.9090 C.ar      1 LIG        -0.1500
     36 H15         0.7420    3.9030    2.8070 H         1 LIG         0.1500
     37 C14        -0.6460    4.0470    1.1960 C.ar      1 LIG        -0.1500
     38 H16        -1.0950    4.9460    1.5440 H         1 LIG         0.1500
     39 C15        -1.0830    3.4480    0.0200 C.ar      1 LIG        -0.1500
     40 H17        -1.8720    3.8960   -0.5320 H         1 LIG         0.1500
     41 C16        -3.3880    1.2180   -1.5650 C.2       1 LIG        -0.3020
     42 H18        -3.5830    2.1150   -2.1020 H         1 LIG         0.1500
     43 C17        -4.2710    0.3470   -0.9850 C.2       1 LIG        -0.1500
     44 H19        -5.3290    0.4350   -0.9850 H         1 LIG         0.1500
@<TRIPOS>BOND
  1   1   2  1   
  2   1   3  1   
  3   1  16  1   
  4   3   4  1   
  5   3   5  1   
  6   3   6  1   
  7   6   7  2   
  8   6  14  1   
  9   7   8  1   
 10   8   9  1   
 11   9  10  1   
 12   9  14  2   
 13  10  11  1   
 14  10  12  1   
 15  10  13  1   
 16  14  15  1   
 17  16  17  ar  
 18  16  25  ar  
 19  17  18  ar  
 20  18  19  1   
 21  18  22  ar  
 22  19  20  1   
 23  19  21  1   
 24  22  23  1   
 25  22  24  ar  
 26  24  25  ar  
 27  24  43  1   
 28  25  26  1   
 29  26  27  1   
 30  26  41  1   
 31  27  28  1   
 32  27  29  1   
 33  27  30  1   
 34  30  31  ar  
 35  30  39  ar  
 36  31  32  1   
 37  31  33  ar  
 38  33  34  1   
 39  33  35  ar  
 40  35  36  1   
 41  35  37  ar  
 42  37  38  1   
 43  37  39  ar  
 44  39  40  1   
 45  41  42  1   
 46  41  43  2   
 47  43  44  1   
@<TRIPOS>SUBSTRUCTURE
  1 ****   1 GROUP 4 **** **** 0

# MOE 2018.01 (io_trps.svl 2018.01)

@<TRIPOS>MOLECULE
CHEMBL4095178
47 50 1 0 0 
SMALL
USER_CHARGES


@<TRIPOS>ATOM
      1 O1         -3.9010    1.5620   -0.1980 O.3       1 LIG        -0.3630
      2 C1         -5.1740    2.0520    0.2900 C.3       1 LIG         0.0400
      3 H1         -5.2730    1.7750    1.3400 H         1 LIG         0.0800
      4 H2         -5.9690    1.6090   -0.3110 H         1 LIG         0.0800
      5 H3         -5.1790    3.1370    0.1820 H         1 LIG         0.0800
      6 C2         -3.5210    0.2310   -0.2480 C.ar      1 LIG         0.0830
      7 C3         -2.2710   -0.0940   -0.7930 C.ar      1 LIG         0.1660
      8 C4         -1.3350    0.9800   -1.3180 C.3       1 LIG         0.2390
      9 H4         -1.8910    1.8820   -1.5280 H         1 LIG         0.0800
     10 H5         -0.8320    0.6080   -2.1960 H         1 LIG         0.0800
     11 N1         -0.3600    1.2670   -0.2500 N.pl3     1 LIG         0.0480
     12 C5          1.0360    1.3150   -0.3580 C.ar      1 LIG        -0.1520
     13 C6          1.9660    0.9940   -1.3740 C.ar      1 LIG         0.4100
     14 N2          1.7120    0.2300   -2.4400 N.pl3     1 LIG        -0.8690
     15 H6          2.4490    0.3090   -3.1580 H         1 LIG         0.4000
     16 C7          1.3130   -1.1940   -2.2560 C.3       1 LIG         0.3900
     17 H7          0.2440   -1.2780   -2.1560 H         1 LIG         0.0800
     18 H8          1.6770   -1.7720   -3.0960 H         1 LIG         0.0800
     19 C8          1.9740   -1.7440   -0.9950 C.2       1 LIG         0.1080
     20 N3          3.2310   -2.0310   -0.8960 N.2       1 LIG        -0.4100
     21 O2          3.4450   -2.4730    0.3500 O.3       1 LIG        -0.0190
     22 C9          2.3040   -2.4610    1.0400 C.2       1 LIG        -0.0400
     23 C10         2.2530   -2.9290    2.4740 C.3       1 LIG        -0.0600
     24 H9          1.2430   -2.7780    2.8550 H         1 LIG         0.0800
     25 H10         2.9760   -2.3490    3.0470 H         1 LIG         0.0800
     26 H11         2.5160   -3.9870    2.4890 H         1 LIG         0.0800
     27 C11         1.3490   -2.0010    0.2200 C.2       1 LIG        -0.1500
     28 H12         0.3260   -1.8690    0.4570 H         1 LIG         0.1500
     29 N4          3.2240    1.3540   -1.2690 N.ar      1 LIG        -0.6200
     30 C12         3.6320    1.8730   -0.1100 C.ar      1 LIG         0.7710
     31 N5          4.9110    2.1970    0.0310 N.pl3     1 LIG        -0.9000
     32 H13         5.3430    2.5490    0.8950 H         1 LIG         0.4000
     33 H14         5.5270    1.9780   -0.7700 H         1 LIG         0.4000
     34 N6          2.8290    2.0910    0.9440 N.ar      1 LIG        -0.1250
     35 H15         3.2370    2.4690    1.8010 H         1 LIG         0.4570
     36 C13         1.4790    1.8370    0.8270 C.ar      1 LIG         0.3070
     37 C14         0.4140    2.0670    1.6930 C.2       1 LIG        -0.1500
     38 H16         0.4520    2.4550    2.6790 H         1 LIG         0.1500
     39 C15        -0.7160    1.7160    1.0100 C.2       1 LIG        -0.3020
     40 H17        -1.7330    1.7650    1.3110 H         1 LIG         0.1500
     41 N7         -1.8670   -1.3690   -0.8610 N.ar      1 LIG        -0.6200
     42 C16        -2.6570   -2.3460   -0.4080 C.ar      1 LIG         0.1600
     43 H18        -2.3090   -3.3460   -0.4800 H         1 LIG         0.1500
     44 C17        -3.9060   -2.0800    0.1470 C.ar      1 LIG        -0.1500
     45 H19        -4.5080   -2.8770    0.4990 H         1 LIG         0.1500
     46 C18        -4.3570   -0.7710    0.2340 C.ar      1 LIG        -0.1500
     47 H20        -5.3050   -0.5540    0.6520 H         1 LIG         0.1500
@<TRIPOS>BOND
  1   1   2  1   
  2   1   6  1   
  3   2   3  1   
  4   2   4  1   
  5   2   5  1   
  6   6   7  ar  
  7   6  46  ar  
  8   7   8  1   
  9   7  41  ar  
 10   8   9  1   
 11   8  10  1   
 12   8  11  1   
 13  11  12  1   
 14  11  39  1   
 15  12  13  ar  
 16  12  36  ar  
 17  13  14  1   
 18  13  29  ar  
 19  14  15  1   
 20  14  16  1   
 21  16  17  1   
 22  16  18  1   
 23  16  19  1   
 24  19  20  2   
 25  19  27  1   
 26  20  21  1   
 27  21  22  1   
 28  22  23  1   
 29  22  27  2   
 30  23  24  1   
 31  23  25  1   
 32  23  26  1   
 33  27  28  1   
 34  29  30  ar  
 35  30  31  1   
 36  30  34  ar  
 37  31  32  1   
 38  31  33  1   
 39  34  35  1   
 40  34  36  ar  
 41  36  37  1   
 42  37  38  1   
 43  37  39  2   
 44  39  40  1   
 45  41  42  ar  
 46  42  43  1   
 47  42  44  ar  
 48  44  45  1   
 49  44  46  ar  
 50  46  47  1   
@<TRIPOS>SUBSTRUCTURE
  1 ****  11 GROUP 4 **** **** 0

# MOE 2018.01 (io_trps.svl 2018.01)

@<TRIPOS>MOLECULE
CHEMBL4074704
46 49 1 0 0 
SMALL
USER_CHARGES


@<TRIPOS>ATOM
      1 O1          1.1860    0.5450    0.9220 O.3       1 LIG        -0.3630
      2 C1          2.2700    1.1310    1.7130 C.3       1 LIG         0.3000
      3 H1          2.0000    2.1470    1.9660 H         1 LIG         0.0800
      4 H2          2.4840    0.5150    2.5760 H         1 LIG         0.0800
      5 C2          3.4880    1.1760    0.8100 C.2       1 LIG         0.2980
      6 O2          3.5260    2.0670   -0.2000 O.3       1 LIG        -0.2800
      7 C3          4.6850    1.8740   -0.8020 C.2       1 LIG        -0.0400
      8 C4          5.0870    2.7040   -1.9960 C.3       1 LIG        -0.0600
      9 H3          6.0870    2.4070   -2.3100 H         1 LIG         0.0800
     10 H4          5.0730    3.7520   -1.6950 H         1 LIG         0.0800
     11 H5          4.3630    2.5250   -2.7900 H         1 LIG         0.0800
     12 C5          5.3180    0.8810   -0.1560 C.2       1 LIG         0.0770
     13 H6          6.2740    0.4900   -0.3960 H         1 LIG         0.1500
     14 N1          4.5450    0.4400    0.8720 N.2       1 LIG        -0.5650
     15 C6          1.0800   -0.7590    0.6520 C.ar      1 LIG         0.3920
     16 N2          1.9370   -1.6040    1.1760 N.ar      1 LIG        -0.6200
     17 C7          1.8450   -2.9050    0.8410 C.ar      1 LIG         0.7710
     18 N3          2.7290   -3.7500    1.3450 N.pl3     1 LIG        -0.9000
     19 H7          2.7690   -4.7580    1.1460 H         1 LIG         0.4000
     20 H8          3.4650   -3.3380    1.9450 H         1 LIG         0.4000
     21 N4          0.9130   -3.4010    0.0190 N.ar      1 LIG        -0.1250
     22 H9          0.9140   -4.4040   -0.1770 H         1 LIG         0.4570
     23 C8         -0.0180   -2.5520   -0.5380 C.ar      1 LIG         0.3070
     24 C9          0.0680   -1.2250   -0.2090 C.ar      1 LIG        -0.1520
     25 N5         -0.9840   -0.5990   -0.8820 N.pl3     1 LIG         0.0480
     26 C10        -1.3790    0.8140   -0.8110 C.3       1 LIG         0.2390
     27 H10        -0.5350    1.4270   -0.5350 H         1 LIG         0.0800
     28 H11        -1.8100    1.1120   -1.7550 H         1 LIG         0.0800
     29 C11        -2.4250    0.8890    0.2850 C.ar      1 LIG         0.1660
     30 C12        -3.7940    0.8620   -0.0110 C.ar      1 LIG         0.0830
     31 O3         -4.1880    0.7630   -1.3370 O.3       1 LIG        -0.3630
     32 C13        -5.5610    0.7540   -1.8000 C.3       1 LIG         0.0400
     33 H12        -5.5470    0.6820   -2.8880 H         1 LIG         0.0800
     34 H13        -6.0360    1.6850   -1.4890 H         1 LIG         0.0800
     35 H14        -6.0660   -0.1100   -1.3680 H         1 LIG         0.0800
     36 C14        -4.7330    0.9310    1.0140 C.ar      1 LIG        -0.1500
     37 H15        -5.7740    0.9140    0.8200 H         1 LIG         0.1500
     38 C15        -4.2580    1.0240    2.3140 C.ar      1 LIG        -0.1500
     39 H16        -4.9340    1.0800    3.1280 H         1 LIG         0.1500
     40 C16        -2.8850    1.0420    2.5490 C.ar      1 LIG         0.1600
     41 H17        -2.5140    1.1130    3.5410 H         1 LIG         0.1500
     42 N6         -2.0000    0.9740    1.5520 N.ar      1 LIG        -0.6200
     43 C17        -1.6700   -1.5540   -1.6090 C.2       1 LIG        -0.3020
     44 H18        -2.5180   -1.2930   -2.1950 H         1 LIG         0.1500
     45 C18        -1.0830   -2.7730   -1.4070 C.2       1 LIG        -0.1500
     46 H19        -1.3940   -3.6940   -1.8310 H         1 LIG         0.1500
@<TRIPOS>BOND
  1   1   2  1   
  2   1  15  1   
  3   2   3  1   
  4   2   4  1   
  5   2   5  1   
  6   5   6  1   
  7   5  14  2   
  8   6   7  1   
  9   7   8  1   
 10   7  12  2   
 11   8   9  1   
 12   8  10  1   
 13   8  11  1   
 14  12  13  1   
 15  12  14  1   
 16  15  16  ar  
 17  15  24  ar  
 18  16  17  ar  
 19  17  18  1   
 20  17  21  ar  
 21  18  19  1   
 22  18  20  1   
 23  21  22  1   
 24  21  23  ar  
 25  23  24  ar  
 26  23  45  1   
 27  24  25  1   
 28  25  26  1   
 29  25  43  1   
 30  26  27  1   
 31  26  28  1   
 32  26  29  1   
 33  29  30  ar  
 34  29  42  ar  
 35  30  31  1   
 36  30  36  ar  
 37  31  32  1   
 38  32  33  1   
 39  32  34  1   
 40  32  35  1   
 41  36  37  1   
 42  36  38  ar  
 43  38  39  1   
 44  38  40  ar  
 45  40  41  1   
 46  40  42  ar  
 47  43  44  1   
 48  43  45  2   
 49  45  46  1   
@<TRIPOS>SUBSTRUCTURE
  1 ****  24 GROUP 4 **** **** 0

# MOE 2018.01 (io_trps.svl 2018.01)

@<TRIPOS>MOLECULE
CHEMBL2315165
64 67 1 0 0 
SMALL
USER_CHARGES


@<TRIPOS>ATOM
      1 O1         -1.3230   -4.4500   -0.2190 O.2       1 LIG        -0.5700
      2 C1         -1.9450   -3.4260    0.0420 C.2       1 LIG         0.6900
      3 N1         -1.9700   -2.2750   -0.7080 N.am      1 LIG        -0.4770
      4 C2         -1.2440   -2.0930   -1.9480 C.3       1 LIG         0.2840
      5 H1         -1.0670   -3.0530   -2.4180 H         1 LIG         0.0800
      6 H2         -1.7850   -1.4100   -2.5900 H         1 LIG         0.0800
      7 C3          0.0740   -1.4740   -1.5180 C.ar      1 LIG        -0.1440
      8 C4          0.1740   -0.1180   -1.3000 C.ar      1 LIG         0.2110
      9 H3         -0.6210    0.5790   -1.4200 H         1 LIG         0.1500
     10 N2          1.3620    0.4160   -0.8860 N.ar      1 LIG        -0.1790
     11 H4          1.4380    1.4260   -0.7160 H         1 LIG         0.4570
     12 C5          2.4610   -0.3330   -0.6860 C.ar      1 LIG         0.4610
     13 N3          3.5870    0.3420   -0.2980 N.pl3     1 LIG        -0.8380
     14 C6          4.8910   -0.3480   -0.1630 C.3       1 LIG         0.2090
     15 H5          4.8650   -0.9570    0.7300 H         1 LIG         0.0800
     16 H6          5.1390   -0.8950   -1.0640 H         1 LIG         0.0800
     17 C7          5.8680    0.8430   -0.0030 C.3       1 LIG         0.4230
     18 N4          7.1600    0.5700    0.7240 N.4       1 LIG        -0.9590
     19 H7          7.6060    1.4600    0.9400 H         1 LIG         0.4500
     20 C8          6.9850   -0.2080    1.9870 C.3       1 LIG         0.2630
     21 H8          6.5850   -1.1870    1.7520 H         1 LIG         0.0800
     22 H9          6.3190    0.3340    2.6470 H         1 LIG         0.0800
     23 H10         7.9590   -0.3120    2.4550 H         1 LIG         0.0800
     24 C9          8.0520   -0.2140   -0.1700 C.3       1 LIG         0.2630
     25 H11         7.5860   -1.1680   -0.3860 H         1 LIG         0.0800
     26 H12         8.9980   -0.3640    0.3390 H         1 LIG         0.0800
     27 H13         8.2080    0.3510   -1.0830 H         1 LIG         0.0800
     28 C10         5.0320    1.8550    0.7820 C.3       1 LIG        -0.1600
     29 H14         4.8930    1.5520    1.8200 H         1 LIG         0.0800
     30 H15         5.4480    2.8610    0.7280 H         1 LIG         0.0800
     31 C11         3.6780    1.7760    0.0620 C.3       1 LIG         0.2090
     32 H16         3.7180    2.3800   -0.8390 H         1 LIG         0.0800
     33 H17         2.8960    2.0700    0.7530 H         1 LIG         0.0800
     34 C12         2.3840   -1.7310   -0.8930 C.ar      1 LIG        -0.1500
     35 H18         3.2330   -2.3390   -0.7230 H         1 LIG         0.1500
     36 C13         1.2000   -2.2960   -1.3020 C.ar      1 LIG        -0.1500
     37 H19         1.1250   -3.3480   -1.4470 H         1 LIG         0.1500
     38 C14        -2.7230   -1.3350   -0.0430 C.ar      1 LIG         0.4270
     39 N5         -2.9440   -0.0740   -0.4080 N.ar      1 LIG        -0.6200
     40 C15        -3.6970    0.6070    0.4550 C.ar      1 LIG         0.7200
     41 N6         -3.9260    1.8940    0.0740 N.pl3     1 LIG        -0.8690
     42 H20        -3.7500    2.0180   -0.9270 H         1 LIG         0.4000
     43 C16        -5.0650    2.6610    0.5920 C.3       1 LIG         0.2090
     44 H21        -5.4670    2.2610    1.5260 H         1 LIG         0.0800
     45 H22        -4.7550    3.6930    0.7690 H         1 LIG         0.0800
     46 C17        -6.1410    2.6410   -0.5040 C.3       1 LIG        -0.1600
     47 H23        -6.9290    3.3330   -0.2030 H         1 LIG         0.0800
     48 H24        -5.7150    3.0080   -1.4390 H         1 LIG         0.0800
     49 C18        -6.7720    1.2550   -0.7300 C.3       1 LIG        -0.1600
     50 H25        -6.0220    0.5600   -1.1090 H         1 LIG         0.0800
     51 H26        -7.1560    0.8700    0.2170 H         1 LIG         0.0800
     52 C19        -7.9200    1.3420   -1.7420 C.3       1 LIG        -0.2400
     53 H27        -7.5490    1.7150   -2.6980 H         1 LIG         0.0800
     54 H28        -8.6980    2.0110   -1.3710 H         1 LIG         0.0800
     55 H29        -8.3490    0.3510   -1.8930 H         1 LIG         0.0800
     56 N7         -4.2190    0.1550    1.6150 N.ar      1 LIG        -0.6200
     57 C20        -3.9760   -1.0970    1.9430 C.ar      1 LIG         0.4100
     58 N8         -4.5290   -1.5210    3.1170 N.pl3     1 LIG        -0.9000
     59 H30        -5.2460   -0.8700    3.4670 H         1 LIG         0.4000
     60 H31        -4.7790   -2.5160    3.1630 H         1 LIG         0.4000
     61 C21        -3.1980   -1.8980    1.1080 C.ar      1 LIG         0.1170
     62 N9         -2.7080   -3.2120    1.1440 N.am      1 LIG        -0.5470
     63 H32        -2.8030   -3.9210    1.8830 H         1 LIG         0.3700
     64 H33         6.0630    1.2550   -0.9880 H         1 LIG         0.0800
@<TRIPOS>BOND
  1   1   2  2   
  2   2   3  am  
  3   2  62  am  
  4   3   4  1   
  5   3  38  1   
  6   4   5  1   
  7   4   6  1   
  8   4   7  1   
  9   7   8  ar  
 10   7  36  ar  
 11   8   9  1   
 12   8  10  ar  
 13  10  11  1   
 14  10  12  ar  
 15  12  13  1   
 16  12  34  ar  
 17  13  14  1   
 18  13  31  1   
 19  14  15  1   
 20  14  16  1   
 21  14  17  1   
 22  17  18  1   
 23  17  28  1   
 24  17  64  1   
 25  18  19  1   
 26  18  20  1   
 27  18  24  1   
 28  20  21  1   
 29  20  22  1   
 30  20  23  1   
 31  24  25  1   
 32  24  26  1   
 33  24  27  1   
 34  28  29  1   
 35  28  30  1   
 36  28  31  1   
 37  31  32  1   
 38  31  33  1   
 39  34  35  1   
 40  34  36  ar  
 41  36  37  1   
 42  38  39  ar  
 43  38  61  ar  
 44  39  40  ar  
 45  40  41  1   
 46  40  56  ar  
 47  41  42  1   
 48  41  43  1   
 49  43  44  1   
 50  43  45  1   
 51  43  46  1   
 52  46  47  1   
 53  46  48  1   
 54  46  49  1   
 55  49  50  1   
 56  49  51  1   
 57  49  52  1   
 58  52  53  1   
 59  52  54  1   
 60  52  55  1   
 61  56  57  ar  
 62  57  58  1   
 63  57  61  ar  
 64  58  59  1   
 65  58  60  1   
 66  61  62  1   
 67  62  63  1   
@<TRIPOS>SUBSTRUCTURE
  1 ****   8 GROUP 4 **** **** 0

# MOE 2018.01 (io_trps.svl 2018.01)

@<TRIPOS>MOLECULE
CHEMBL1082983
48 50 1 0 0 
SMALL
USER_CHARGES


@<TRIPOS>ATOM
      1 O1          0.8890   -3.5760   -0.1040 O.3       1 LIG        -0.6800
      2 H1          1.1050   -4.0790    0.6850 H         1 LIG         0.4000
      3 C1          0.5550   -2.2710    0.2770 C.3       1 LIG         0.2800
      4 C2          0.2760   -1.4640   -1.0280 C.3       1 LIG         0.0960
      5 H2         -0.5080   -1.9440   -1.5820 H         1 LIG         0.0800
      6 H3          1.1710   -1.4940   -1.6270 H         1 LIG         0.0800
      7 N1         -0.0830   -0.0540   -0.7320 N.pl3     1 LIG         0.0480
      8 C3          0.8310    0.9930   -0.6940 C.2       1 LIG         0.0060
      9 C4          2.3120    0.8900   -1.0540 C.3       1 LIG         0.0200
     10 H4          2.6450   -0.1350   -1.1660 H         1 LIG         0.0800
     11 H5          2.4770    1.4130   -1.9970 H         1 LIG         0.0800
     12 C5          3.1230    1.5820    0.0590 C.3       1 LIG        -0.1600
     13 H6          2.8230    2.6300    0.1090 H         1 LIG         0.0800
     14 H7          2.8950    1.1260    1.0230 H         1 LIG         0.0800
     15 C6          4.6420    1.5360   -0.1760 C.3       1 LIG        -0.1600
     16 H8          4.8740    1.9490   -1.1600 H         1 LIG         0.0800
     17 H9          5.1220    2.1700    0.5720 H         1 LIG         0.0800
     18 C7          5.2330    0.1250   -0.0610 C.3       1 LIG        -0.2400
     19 H10         4.8690   -0.5150   -0.8650 H         1 LIG         0.0800
     20 H11         4.9720   -0.3130    0.9030 H         1 LIG         0.0800
     21 H12         6.3200    0.1830   -0.1360 H         1 LIG         0.0800
     22 N2          0.2510    2.0980   -0.3550 N.2       1 LIG        -0.5650
     23 C8         -1.0610    1.7890   -0.1790 C.ar      1 LIG         0.2270
     24 C9         -2.1160    2.6580    0.2360 C.ar      1 LIG         0.4610
     25 N3         -1.9540    3.9470    0.5400 N.pl3     1 LIG        -0.9000
     26 H13        -2.7020    4.5920    0.8380 H         1 LIG         0.4000
     27 H14        -0.9910    4.3340    0.4600 H         1 LIG         0.4000
     28 N4         -3.3570    2.1880    0.3430 N.ar      1 LIG        -0.1790
     29 H15        -4.0870    2.8370    0.6540 H         1 LIG         0.4570
     30 C10        -3.6840    0.8550    0.0240 C.ar      1 LIG         0.3610
     31 C11        -2.6750   -0.0410   -0.4150 C.ar      1 LIG         0.0000
     32 C12        -1.3160    0.4700   -0.4520 C.ar      1 LIG        -0.1520
     33 C13        -3.0960   -1.3320   -0.7960 C.ar      1 LIG        -0.1500
     34 H16        -2.4140   -2.0400   -1.1740 H         1 LIG         0.1500
     35 C14        -4.4260   -1.7090   -0.6910 C.ar      1 LIG        -0.1500
     36 H17        -4.7220   -2.6890   -0.9760 H         1 LIG         0.1500
     37 C15        -5.3920   -0.8130   -0.2180 C.ar      1 LIG        -0.1500
     38 H18        -6.4040   -1.1270   -0.1420 H         1 LIG         0.1500
     39 C16        -5.0270    0.4720    0.1370 C.ar      1 LIG        -0.1500
     40 H19        -5.7620    1.1510    0.4850 H         1 LIG         0.1500
     41 C17        -0.6550   -2.4100    1.2060 C.3       1 LIG        -0.2400
     42 H20        -0.9940   -1.4320    1.5430 H         1 LIG         0.0800
     43 H21        -0.3850   -2.9950    2.0860 H         1 LIG         0.0800
     44 H22        -1.4630   -2.9310    0.6960 H         1 LIG         0.0800
     45 C18         1.7520   -1.7480    1.0750 C.3       1 LIG        -0.2400
     46 H23         1.5440   -0.7470    1.4520 H         1 LIG         0.0800
     47 H24         2.6430   -1.7310    0.4490 H         1 LIG         0.0800
     48 H25         1.9490   -2.3970    1.9290 H         1 LIG         0.0800
@<TRIPOS>BOND
  1   1   2  1   
  2   1   3  1   
  3   3   4  1   
  4   3  41  1   
  5   3  45  1   
  6   4   5  1   
  7   4   6  1   
  8   4   7  1   
  9   7   8  1   
 10   7  32  1   
 11   8   9  1   
 12   8  22  2   
 13   9  10  1   
 14   9  11  1   
 15   9  12  1   
 16  12  13  1   
 17  12  14  1   
 18  12  15  1   
 19  15  16  1   
 20  15  17  1   
 21  15  18  1   
 22  18  19  1   
 23  18  20  1   
 24  18  21  1   
 25  22  23  1   
 26  23  24  ar  
 27  23  32  ar  
 28  24  25  1   
 29  24  28  ar  
 30  25  26  1   
 31  25  27  1   
 32  28  29  1   
 33  28  30  ar  
 34  30  31  ar  
 35  30  39  ar  
 36  31  32  ar  
 37  31  33  ar  
 38  33  34  1   
 39  33  35  ar  
 40  35  36  1   
 41  35  37  ar  
 42  37  38  1   
 43  37  39  ar  
 44  39  40  1   
 45  41  42  1   
 46  41  43  1   
 47  41  44  1   
 48  45  46  1   
 49  45  47  1   
 50  45  48  1   
@<TRIPOS>SUBSTRUCTURE
  1 ****  32 GROUP 4 **** **** 0

# MOE 2018.01 (io_trps.svl 2018.01)

@<TRIPOS>MOLECULE
CHEMBL4086717
45 48 1 0 0 
SMALL
USER_CHARGES


@<TRIPOS>ATOM
      1 N1         -0.1980   -1.1570   -0.4230 N.pl3     1 LIG        -0.8690
      2 H1         -0.5050   -1.5500   -1.3360 H         1 LIG         0.4000
      3 C1         -0.9790   -1.7760    0.7020 C.3       1 LIG         0.3890
      4 H2         -0.8160   -2.8470    0.7130 H         1 LIG         0.0800
      5 H3         -0.7040   -1.3190    1.6460 H         1 LIG         0.0800
      6 C2         -2.4690   -1.5000    0.4760 C.2       1 LIG         0.1940
      7 S1         -3.2580   -0.0690    0.9670 S.3       1 LIG        -0.0800
      8 C3         -4.7700   -0.6200    0.3590 C.2       1 LIG        -0.1400
      9 C4         -6.0150    0.2340    0.4820 C.3       1 LIG        -0.0600
     10 H4         -6.8660   -0.3060    0.0630 H         1 LIG         0.0800
     11 H5         -5.8550    1.1640   -0.0650 H         1 LIG         0.0800
     12 H6         -6.1890    0.4430    1.5390 H         1 LIG         0.0800
     13 C5         -4.6400   -1.8520   -0.1920 C.2       1 LIG         0.1830
     14 H7         -5.3910   -2.4540   -0.6450 H         1 LIG         0.1500
     15 N2         -3.3420   -2.3220   -0.1150 N.pl3     1 LIG        -0.1170
     16 H8         -3.0770   -3.2560   -0.4850 H         1 LIG         0.4500
     17 C6         -0.1410    0.1880   -0.4730 C.ar      1 LIG         0.4100
     18 N3         -0.8750    0.7180   -1.4170 N.ar      1 LIG        -0.6200
     19 C7         -0.9710    2.0620   -1.4770 C.ar      1 LIG         0.7710
     20 N4         -1.7090    2.6170   -2.4280 N.pl3     1 LIG        -0.9000
     21 H9         -1.8200    3.6320   -2.5730 H         1 LIG         0.4000
     22 H10        -2.1600    1.9910   -3.1160 H         1 LIG         0.4000
     23 N5         -0.3590    2.8960   -0.6180 N.ar      1 LIG        -0.1250
     24 H11        -0.5070    3.9070   -0.7190 H         1 LIG         0.4570
     25 C8          0.4770    2.3710    0.3490 C.ar      1 LIG         0.3070
     26 C9          0.6080    1.0060    0.4030 C.ar      1 LIG        -0.1520
     27 N6          1.5900    0.7600    1.3760 N.pl3     1 LIG         0.0480
     28 C10         2.2480   -0.5080    1.7210 C.3       1 LIG         0.2390
     29 H12         2.7640   -0.3910    2.6660 H         1 LIG         0.0800
     30 H13         1.5320   -1.3140    1.7530 H         1 LIG         0.0800
     31 C11         3.2760   -0.7640    0.6270 C.ar      1 LIG         0.2170
     32 N7          2.8110   -1.2110   -0.5660 N.ar      1 LIG        -0.1790
     33 H14         1.7790   -1.3430   -0.6850 H         1 LIG         0.4570
     34 C12         3.6170   -1.4830   -1.6150 C.ar      1 LIG         0.2110
     35 H15         3.1330   -1.8300   -2.4980 H         1 LIG         0.1500
     36 C13         4.9850   -1.2960   -1.4840 C.ar      1 LIG        -0.1500
     37 H16         5.6320   -1.5050   -2.3010 H         1 LIG         0.1500
     38 C14         5.5090   -0.8340   -0.2840 C.ar      1 LIG        -0.1500
     39 H17         6.5580   -0.6880   -0.1750 H         1 LIG         0.1500
     40 C15         4.6460   -0.5680    0.7720 C.ar      1 LIG        -0.1500
     41 H18         5.0420   -0.2150    1.6930 H         1 LIG         0.1500
     42 C16         1.9830    1.9670    1.9140 C.2       1 LIG        -0.3020
     43 H19         2.7170    2.0270    2.6820 H         1 LIG         0.1500
     44 C17         1.3020    2.9770    1.2930 C.2       1 LIG        -0.1500
     45 H20         1.4040    4.0160    1.4920 H         1 LIG         0.1500
@<TRIPOS>BOND
  1   1   2  1   
  2   1   3  1   
  3   1  17  1   
  4   3   4  1   
  5   3   5  1   
  6   3   6  1   
  7   6   7  1   
  8   6  15  2   
  9   7   8  1   
 10   8   9  1   
 11   8  13  2   
 12   9  10  1   
 13   9  11  1   
 14   9  12  1   
 15  13  14  1   
 16  13  15  1   
 17  15  16  1   
 18  17  18  ar  
 19  17  26  ar  
 20  18  19  ar  
 21  19  20  1   
 22  19  23  ar  
 23  20  21  1   
 24  20  22  1   
 25  23  24  1   
 26  23  25  ar  
 27  25  26  ar  
 28  25  44  1   
 29  26  27  1   
 30  27  28  1   
 31  27  42  1   
 32  28  29  1   
 33  28  30  1   
 34  28  31  1   
 35  31  32  ar  
 36  31  40  ar  
 37  32  33  1   
 38  32  34  ar  
 39  34  35  1   
 40  34  36  ar  
 41  36  37  1   
 42  36  38  ar  
 43  38  39  1   
 44  38  40  ar  
 45  40  41  1   
 46  42  43  1   
 47  42  44  2   
 48  44  45  1   
@<TRIPOS>SUBSTRUCTURE
  1 ****  17 GROUP 4 **** **** 0

# MOE 2018.01 (io_trps.svl 2018.01)

@<TRIPOS>MOLECULE
CHEMBL2315152
51 53 1 0 0 
SMALL
USER_CHARGES


@<TRIPOS>ATOM
      1 O1          1.2870    3.8180   -1.2190 O.2       1 LIG        -0.5700
      2 C1          0.4690    3.0760   -0.6820 C.2       1 LIG         0.6900
      3 N1          0.2120    1.7620   -0.9890 N.am      1 LIG        -0.4770
      4 C2          0.9780    0.9760   -1.9380 C.3       1 LIG         0.2840
      5 H1          0.3880    0.1360   -2.2800 H         1 LIG         0.0800
      6 H2          1.3110    1.6090   -2.7510 H         1 LIG         0.0800
      7 C3          2.1820    0.4670   -1.1680 C.ar      1 LIG        -0.1440
      8 C4          3.3760    1.1870   -1.1700 C.ar      1 LIG        -0.1500
      9 H3          3.4380    2.1030   -1.7000 H         1 LIG         0.1500
     10 C5          4.4870    0.7210   -0.4760 C.ar      1 LIG        -0.1500
     11 H4          5.3760    1.2890   -0.4970 H         1 LIG         0.1500
     12 C6          4.4210   -0.4860    0.2360 C.ar      1 LIG         0.1000
     13 N2          5.5590   -0.9900    0.9400 N.pl3     1 LIG        -0.8380
     14 C7          5.6560   -2.4500    1.1460 C.3       1 LIG         0.1290
     15 H5          6.6410   -2.6930    1.5210 H         1 LIG         0.0800
     16 H6          5.4800   -2.9300    0.1930 H         1 LIG         0.0800
     17 H7          4.9090   -2.7290    1.8770 H         1 LIG         0.0800
     18 C8          6.8550   -0.2930    0.8340 C.3       1 LIG         0.1290
     19 H8          7.5580   -0.7620    1.5090 H         1 LIG         0.0800
     20 H9          6.7020    0.7350    1.1350 H         1 LIG         0.0800
     21 H10         7.1870   -0.3670   -0.1930 H         1 LIG         0.0800
     22 C9          3.2110   -1.1940    0.2590 C.ar      1 LIG        -0.1500
     23 H11         3.1230   -2.0860    0.8160 H         1 LIG         0.1500
     24 C10         2.1060   -0.7200   -0.4390 C.ar      1 LIG        -0.1500
     25 H12         1.1960   -1.2630   -0.4090 H         1 LIG         0.1500
     26 C11        -0.7930    1.3040   -0.1650 C.ar      1 LIG         0.4270
     27 N3         -1.3480    0.0940   -0.1390 N.ar      1 LIG        -0.6200
     28 C12        -2.3070   -0.0410    0.7720 C.ar      1 LIG         0.7200
     29 N4         -2.8670   -1.2800    0.7970 N.pl3     1 LIG        -0.8690
     30 H13        -2.5830   -1.8150   -0.0300 H         1 LIG         0.4000
     31 C13        -4.2420   -1.4910    1.2480 C.3       1 LIG         0.2090
     32 H14        -4.4000   -2.5430    1.4950 H         1 LIG         0.0800
     33 H15        -4.4660   -0.8900    2.1330 H         1 LIG         0.0800
     34 C14        -5.1610   -1.0840    0.0860 C.3       1 LIG        -0.1600
     35 H16        -6.1900   -1.1410    0.4430 H         1 LIG         0.0800
     36 H17        -4.9610   -0.0460   -0.1850 H         1 LIG         0.0800
     37 C15        -5.0200   -1.9800   -1.1570 C.3       1 LIG        -0.1600
     38 H18        -4.0110   -1.8970   -1.5650 H         1 LIG         0.0800
     39 H19        -5.2040   -3.0210   -0.8820 H         1 LIG         0.0800
     40 C16        -6.0220   -1.5590   -2.2360 C.3       1 LIG        -0.2400
     41 H20        -5.8400   -0.5250   -2.5320 H         1 LIG         0.0800
     42 H21        -7.0420   -1.6520   -1.8600 H         1 LIG         0.0800
     43 H22        -5.9090   -2.2010   -3.1110 H         1 LIG         0.0800
     44 N5         -2.7650    0.9020    1.6270 N.ar      1 LIG        -0.6200
     45 C17        -2.1960    2.0870    1.5690 C.ar      1 LIG         0.4100
     46 N6         -2.6900    3.0220    2.4330 N.pl3     1 LIG        -0.9000
     47 H23        -3.5860    2.7290    2.8460 H         1 LIG         0.4000
     48 H24        -2.6480    3.9950    2.1070 H         1 LIG         0.4000
     49 C18        -1.1720    2.3310    0.6550 C.ar      1 LIG         0.1170
     50 N7         -0.3720    3.4330    0.3220 N.am      1 LIG        -0.5470
     51 H25        -0.3120    4.3530    0.7710 H         1 LIG         0.3700
@<TRIPOS>BOND
  1   1   2  2   
  2   2   3  am  
  3   2  50  am  
  4   3   4  1   
  5   3  26  1   
  6   4   5  1   
  7   4   6  1   
  8   4   7  1   
  9   7   8  ar  
 10   7  24  ar  
 11   8   9  1   
 12   8  10  ar  
 13  10  11  1   
 14  10  12  ar  
 15  12  13  1   
 16  12  22  ar  
 17  13  14  1   
 18  13  18  1   
 19  14  15  1   
 20  14  16  1   
 21  14  17  1   
 22  18  19  1   
 23  18  20  1   
 24  18  21  1   
 25  22  23  1   
 26  22  24  ar  
 27  24  25  1   
 28  26  27  ar  
 29  26  49  ar  
 30  27  28  ar  
 31  28  29  1   
 32  28  44  ar  
 33  29  30  1   
 34  29  31  1   
 35  31  32  1   
 36  31  33  1   
 37  31  34  1   
 38  34  35  1   
 39  34  36  1   
 40  34  37  1   
 41  37  38  1   
 42  37  39  1   
 43  37  40  1   
 44  40  41  1   
 45  40  42  1   
 46  40  43  1   
 47  44  45  ar  
 48  45  46  1   
 49  45  49  ar  
 50  46  47  1   
 51  46  48  1   
 52  49  50  1   
 53  50  51  1   
@<TRIPOS>SUBSTRUCTURE
  1 ****  26 GROUP 4 **** **** 0

# MOE 2018.01 (io_trps.svl 2018.01)

@<TRIPOS>MOLECULE
CHEMBL519690
49 51 1 0 0 
SMALL
USER_CHARGES


@<TRIPOS>ATOM
      1 S1          1.5590    3.9050    1.4540 S.2       1 LIG        -0.3800
      2 C1          0.1660    3.1810    0.8610 C.2       1 LIG         0.5000
      3 N1         -0.3170    1.8950    1.1370 N.am      1 LIG        -0.4770
      4 C2          0.3960    0.8600    1.8790 C.3       1 LIG         0.2840
      5 H1          0.9920    1.3120    2.6600 H         1 LIG         0.0800
      6 H2         -0.3080    0.1360    2.2660 H         1 LIG         0.0800
      7 C3          1.3090    0.1760    0.8790 C.ar      1 LIG        -0.1440
      8 C4          2.6540    0.5400    0.7920 C.ar      1 LIG        -0.1500
      9 H3          3.0330    1.3040    1.4200 H         1 LIG         0.1500
     10 C5          3.5100   -0.0940   -0.1090 C.ar      1 LIG        -0.1440
     11 C6          4.9740    0.3260   -0.2140 C.3       1 LIG        -0.0170
     12 H4          5.1520    0.9490    0.6480 H         1 LIG         0.0800
     13 H5          5.0000    0.9520   -1.0910 H         1 LIG         0.0800
     14 P1          6.2590   -0.9210   -0.3120 P.3       1 LIG         0.9000
     15 O1          6.3070   -1.6960    0.9710 O.co2     1 LIG        -0.9500
     16 O2          6.1500   -1.6500   -1.6200 O.co2     1 LIG        -0.9500
     17 C7          7.7340    0.0470   -0.3850 C.3       1 LIG        -0.2400
     18 H6          7.8670    0.6600    0.4920 H         1 LIG         0.0800
     19 H7          7.7590    0.6960   -1.2450 H         1 LIG         0.0800
     20 H8          8.6070   -0.5820   -0.4520 H         1 LIG         0.0800
     21 C8          3.0050   -1.0970   -0.9330 C.ar      1 LIG        -0.1500
     22 H9          3.6500   -1.5920   -1.6170 H         1 LIG         0.1500
     23 C9          1.6650   -1.4630   -0.8580 C.ar      1 LIG        -0.1500
     24 H10         1.2950   -2.2300   -1.4880 H         1 LIG         0.1500
     25 C10         0.8190   -0.8280    0.0440 C.ar      1 LIG        -0.1500
     26 H11        -0.1990   -1.1140    0.0960 H         1 LIG         0.1500
     27 C11        -1.4930    1.7100    0.4450 C.ar      1 LIG         0.4270
     28 N2         -2.2720    0.6300    0.4300 N.ar      1 LIG        -0.6200
     29 C12        -3.3600    0.7380   -0.3430 C.ar      1 LIG         0.7020
     30 O3         -4.2040   -0.3280   -0.4160 O.3       1 LIG        -0.3630
     31 C13        -3.9480   -1.5750    0.2820 C.3       1 LIG         0.1200
     32 H12        -3.0270   -2.0340   -0.0790 H         1 LIG         0.0800
     33 H13        -3.8930   -1.4080    1.3580 H         1 LIG         0.0800
     34 C14        -5.1380   -2.4750   -0.0410 C.3       1 LIG         0.1200
     35 H14        -5.1920   -2.6170   -1.1210 H         1 LIG         0.0800
     36 H15        -6.0520   -1.9900    0.3070 H         1 LIG         0.0800
     37 O4         -4.9650   -3.7250    0.6120 O.3       1 LIG        -0.5600
     38 C15        -6.0360   -4.6240    0.3730 C.3       1 LIG         0.0400
     39 H16        -5.8410   -5.5600    0.8980 H         1 LIG         0.0800
     40 H17        -6.1240   -4.8330   -0.6950 H         1 LIG         0.0800
     41 H18        -6.9730   -4.2050    0.7420 H         1 LIG         0.0800
     42 N3         -3.7220    1.8110   -1.0700 N.ar      1 LIG        -0.6200
     43 C16        -2.9320    2.8670   -1.0280 C.ar      1 LIG         0.4100
     44 N4         -3.3460    3.9390   -1.7670 N.pl3     1 LIG        -0.9000
     45 H19        -4.3260    3.8410   -2.0650 H         1 LIG         0.4000
     46 H20        -3.0890    4.8580   -1.3910 H         1 LIG         0.4000
     47 C17        -1.7730    2.8490   -0.2560 C.ar      1 LIG         0.1170
     48 N5         -0.7500    3.7740    0.0040 N.am      1 LIG        -0.5470
     49 H21        -0.5810    4.6790   -0.4560 H         1 LIG         0.3700
@<TRIPOS>BOND
  1   1   2  2   
  2   2   3  am  
  3   2  48  am  
  4   3   4  1   
  5   3  27  1   
  6   4   5  1   
  7   4   6  1   
  8   4   7  1   
  9   7   8  ar  
 10   7  25  ar  
 11   8   9  1   
 12   8  10  ar  
 13  10  11  1   
 14  10  21  ar  
 15  11  12  1   
 16  11  13  1   
 17  11  14  1   
 18  14  15  ar  
 19  14  16  ar  
 20  14  17  1   
 21  17  18  1   
 22  17  19  1   
 23  17  20  1   
 24  21  22  1   
 25  21  23  ar  
 26  23  24  1   
 27  23  25  ar  
 28  25  26  1   
 29  27  28  ar  
 30  27  47  ar  
 31  28  29  ar  
 32  29  30  1   
 33  29  42  ar  
 34  30  31  1   
 35  31  32  1   
 36  31  33  1   
 37  31  34  1   
 38  34  35  1   
 39  34  36  1   
 40  34  37  1   
 41  37  38  1   
 42  38  39  1   
 43  38  40  1   
 44  38  41  1   
 45  42  43  ar  
 46  43  44  1   
 47  43  47  ar  
 48  44  45  1   
 49  44  46  1   
 50  47  48  1   
 51  48  49  1   
@<TRIPOS>SUBSTRUCTURE
  1 ****  25 GROUP 4 **** **** 0

# MOE 2018.01 (io_trps.svl 2018.01)

@<TRIPOS>MOLECULE
CHEMBL4088330
47 49 1 0 0 
SMALL
USER_CHARGES


@<TRIPOS>ATOM
      1 N1          0.6140    0.4100   -0.5010 N.pl3     1 LIG        -0.8690
      2 H1          0.5330    0.4560   -1.5330 H         1 LIG         0.4000
      3 C1          1.6050    1.3980   -0.0070 C.3       1 LIG         0.2090
      4 H2          1.2520    2.4170   -0.1780 H         1 LIG         0.0800
      5 H3          1.8250    1.2730    1.0570 H         1 LIG         0.0800
      6 C2          2.8660    1.1550   -0.8420 C.3       1 LIG        -0.1600
      7 H4          3.2160    0.1330   -0.6850 H         1 LIG         0.0800
      8 H5          2.6410    1.2940   -1.9000 H         1 LIG         0.0800
      9 C3          3.9800    2.1300   -0.4360 C.3       1 LIG        -0.1600
     10 H6          3.6500    3.1590   -0.5930 H         1 LIG         0.0800
     11 H7          4.2210    1.9960    0.6210 H         1 LIG         0.0800
     12 C4          5.2420    1.8790   -1.2680 C.3       1 LIG        -0.2400
     13 H8          5.0320    2.0290   -2.3280 H         1 LIG         0.0800
     14 H9          5.6020    0.8610   -1.1110 H         1 LIG         0.0800
     15 H10         6.0240    2.5770   -0.9640 H         1 LIG         0.0800
     16 C5          0.5160   -0.8370    0.0290 C.ar      1 LIG         0.4100
     17 N2          1.3330   -1.1880    0.9990 N.ar      1 LIG        -0.6200
     18 C6          1.3250   -2.4600    1.4210 C.ar      1 LIG         0.7710
     19 N3          2.1670   -2.8270    2.3780 N.pl3     1 LIG        -0.9000
     20 H11         2.2510   -3.7790    2.7630 H         1 LIG         0.4000
     21 H12         2.8120   -2.1040    2.7400 H         1 LIG         0.4000
     22 N4          0.5070   -3.4090    0.9320 N.ar      1 LIG        -0.1250
     23 H13         0.5860   -4.3630    1.2960 H         1 LIG         0.4570
     24 C7         -0.4330   -3.0590   -0.0180 C.ar      1 LIG         0.3070
     25 C8         -0.4380   -1.7580   -0.4510 C.ar      1 LIG        -0.1520
     26 N5         -1.5380   -1.6470   -1.3100 N.pl3     1 LIG         0.0480
     27 C9         -2.0850   -0.4280   -1.9260 C.3       1 LIG         0.2390
     28 H14        -1.2880    0.1910   -2.3100 H         1 LIG         0.0800
     29 H15        -2.7840   -0.7110   -2.7030 H         1 LIG         0.0800
     30 C10        -2.8440    0.3030   -0.8220 C.ar      1 LIG         0.2170
     31 N6         -2.1100    0.9660    0.1050 N.ar      1 LIG        -0.1790
     32 H16        -1.0610    0.9400    0.0350 H         1 LIG         0.4570
     33 C11        -2.6470    1.6470    1.1340 C.ar      1 LIG         0.2170
     34 C12        -1.6600    2.3190    2.0640 C.3       1 LIG        -0.0960
     35 H17        -2.2100    2.7430    2.9050 H         1 LIG         0.0800
     36 H18        -1.1510    3.1170    1.5200 H         1 LIG         0.0800
     37 H19        -0.9470    1.5780    2.4280 H         1 LIG         0.0800
     38 C13        -4.0300    1.6820    1.2610 C.ar      1 LIG        -0.1500
     39 H20        -4.4770    2.2150    2.0640 H         1 LIG         0.1500
     40 C14        -4.8310    1.0180    0.3410 C.ar      1 LIG        -0.1500
     41 H21        -5.8900    1.0400    0.4350 H         1 LIG         0.1500
     42 C15        -4.2290    0.3260   -0.7030 C.ar      1 LIG        -0.1500
     43 H22        -4.8360   -0.1850   -1.4090 H         1 LIG         0.1500
     44 C16        -2.1420   -2.8830   -1.4090 C.2       1 LIG        -0.3020
     45 H23        -2.9990   -3.0410   -2.0180 H         1 LIG         0.1500
     46 C17        -1.4670   -3.7730   -0.6180 C.2       1 LIG        -0.1500
     47 H24        -1.7050   -4.7990   -0.4870 H         1 LIG         0.1500
@<TRIPOS>BOND
  1   1   2  1   
  2   1   3  1   
  3   1  16  1   
  4   3   4  1   
  5   3   5  1   
  6   3   6  1   
  7   6   7  1   
  8   6   8  1   
  9   6   9  1   
 10   9  10  1   
 11   9  11  1   
 12   9  12  1   
 13  12  13  1   
 14  12  14  1   
 15  12  15  1   
 16  16  17  ar  
 17  16  25  ar  
 18  17  18  ar  
 19  18  19  1   
 20  18  22  ar  
 21  19  20  1   
 22  19  21  1   
 23  22  23  1   
 24  22  24  ar  
 25  24  25  ar  
 26  24  46  1   
 27  25  26  1   
 28  26  27  1   
 29  26  44  1   
 30  27  28  1   
 31  27  29  1   
 32  27  30  1   
 33  30  31  ar  
 34  30  42  ar  
 35  31  32  1   
 36  31  33  ar  
 37  33  34  1   
 38  33  38  ar  
 39  34  35  1   
 40  34  36  1   
 41  34  37  1   
 42  38  39  1   
 43  38  40  ar  
 44  40  41  1   
 45  40  42  ar  
 46  42  43  1   
 47  44  45  1   
 48  44  46  2   
 49  46  47  1   
@<TRIPOS>SUBSTRUCTURE
  1 ****  16 GROUP 4 **** **** 0

# MOE 2018.01 (io_trps.svl 2018.01)

@<TRIPOS>MOLECULE
CHEMBL483597
51 54 1 0 0 
SMALL
USER_CHARGES


@<TRIPOS>ATOM
      1 P1          2.5840   -2.0440    1.7940 P.3       1 LIG         1.1000
      2 O1          1.0800   -1.9850    2.1700 O.co2     1 LIG        -1.0330
      3 O2          3.1420   -0.6490    1.4650 O.co2     1 LIG        -1.0330
      4 O3          3.4520   -2.8980    2.7320 O.co2     1 LIG        -1.0330
      5 C1          2.6490   -2.9140    0.2340 C.3       1 LIG        -0.0160
      6 H1          3.5600   -2.6790   -0.2920 H         1 LIG         0.0800
      7 H2          2.6320   -3.9780    0.4040 H         1 LIG         0.0800
      8 C2          1.4920   -2.6330   -0.7110 C.ar      1 LIG        -0.1440
      9 C3          0.2310   -3.0170   -0.2840 C.ar      1 LIG        -0.1500
     10 H3          0.1440   -3.5700    0.6190 H         1 LIG         0.1500
     11 C4         -0.9040   -2.6050   -0.9590 C.ar      1 LIG        -0.1440
     12 C5         -2.2290   -2.8530   -0.2880 C.3       1 LIG         0.2840
     13 H4         -2.1030   -3.5250    0.5510 H         1 LIG         0.0800
     14 H5         -2.9220   -3.2370   -1.0270 H         1 LIG         0.0800
     15 N1         -2.6580   -1.5380    0.2010 N.am      1 LIG        -0.4770
     16 C6         -3.9550   -1.1200   -0.0220 C.2       1 LIG         0.6900
     17 O4         -4.8620   -1.7730   -0.5230 O.2       1 LIG        -0.5700
     18 N2         -4.0630    0.1640    0.3970 N.am      1 LIG        -0.5470
     19 H6         -4.9470    0.6820    0.3050 H         1 LIG         0.3700
     20 C7         -2.8270    0.5860    0.8940 C.ar      1 LIG         0.1170
     21 C8         -2.3580    1.8040    1.4060 C.ar      1 LIG         0.4100
     22 N3         -3.1250    2.8980    1.5530 N.pl3     1 LIG        -0.9000
     23 H7         -2.6860    3.7460    1.9420 H         1 LIG         0.4000
     24 H8         -4.1210    2.9150    1.2990 H         1 LIG         0.4000
     25 N4         -1.1010    1.9440    1.7700 N.ar      1 LIG        -0.6200
     26 C9         -0.2840    0.8790    1.6590 C.ar      1 LIG         0.7710
     27 N5          1.0120    0.9840    1.9380 N.pl3     1 LIG        -0.8690
     28 H9          1.6270    0.1100    1.8980 H         1 LIG         0.4000
     29 C10         1.7870    2.1830    1.6840 C.3       1 LIG         0.3530
     30 H10         1.4130    3.0000    2.2860 H         1 LIG         0.0800
     31 H11         2.8320    1.9650    1.8690 H         1 LIG         0.0800
     32 C11         1.6010    2.4920    0.2030 C.ar      1 LIG        -0.1440
     33 C12         2.1470    1.6450   -0.7620 C.ar      1 LIG        -0.1500
     34 H12         2.6980    0.7890   -0.4570 H         1 LIG         0.1500
     35 C13         1.9670    1.9100   -2.1160 C.ar      1 LIG        -0.1500
     36 H13         2.3870    1.2570   -2.8370 H         1 LIG         0.1500
     37 C14         1.2400    3.0260   -2.5170 C.ar      1 LIG        -0.1500
     38 H14         1.1050    3.2280   -3.5480 H         1 LIG         0.1500
     39 C15         0.6920    3.8760   -1.5620 C.ar      1 LIG        -0.1500
     40 H15         0.1370    4.7270   -1.8650 H         1 LIG         0.1500
     41 C16         0.8710    3.6090   -0.2070 C.ar      1 LIG        -0.1500
     42 H16         0.4440    4.2550    0.5170 H         1 LIG         0.1500
     43 N6         -0.6970   -0.3410    1.2410 N.ar      1 LIG        -0.1790
     44 H17         0.0070   -1.1260    1.3430 H         1 LIG         0.4570
     45 C17        -1.9830   -0.4810    0.7910 C.ar      1 LIG         0.4780
     46 C18        -0.7750   -1.9100   -2.1610 C.ar      1 LIG        -0.1500
     47 H18        -1.6350   -1.6080   -2.7010 H         1 LIG         0.1500
     48 C19         0.4930   -1.5850   -2.6400 C.ar      1 LIG        -0.1500
     49 H19         0.5970   -1.0520   -3.5490 H         1 LIG         0.1500
     50 C20         1.6260   -1.9270   -1.9040 C.ar      1 LIG        -0.1500
     51 H20         2.5880   -1.6290   -2.2340 H         1 LIG         0.1500
@<TRIPOS>BOND
  1   1   2  ar  
  2   1   3  ar  
  3   1   4  ar  
  4   1   5  1   
  5   5   6  1   
  6   5   7  1   
  7   5   8  1   
  8   8   9  ar  
  9   8  50  ar  
 10   9  10  1   
 11   9  11  ar  
 12  11  12  1   
 13  11  46  ar  
 14  12  13  1   
 15  12  14  1   
 16  12  15  1   
 17  15  16  am  
 18  15  45  1   
 19  16  17  2   
 20  16  18  am  
 21  18  19  1   
 22  18  20  1   
 23  20  21  ar  
 24  20  45  ar  
 25  21  22  1   
 26  21  25  ar  
 27  22  23  1   
 28  22  24  1   
 29  25  26  ar  
 30  26  27  1   
 31  26  43  ar  
 32  27  28  1   
 33  27  29  1   
 34  29  30  1   
 35  29  31  1   
 36  29  32  1   
 37  32  33  ar  
 38  32  41  ar  
 39  33  34  1   
 40  33  35  ar  
 41  35  36  1   
 42  35  37  ar  
 43  37  38  1   
 44  37  39  ar  
 45  39  40  1   
 46  39  41  ar  
 47  41  42  1   
 48  43  44  1   
 49  43  45  ar  
 50  46  47  1   
 51  46  48  ar  
 52  48  49  1   
 53  48  50  ar  
 54  50  51  1   
@<TRIPOS>SUBSTRUCTURE
  1 ****  43 GROUP 4 **** **** 0

# MOE 2018.01 (io_trps.svl 2018.01)

@<TRIPOS>MOLECULE
CHEMBL4104700
47 49 1 0 0 
SMALL
USER_CHARGES


@<TRIPOS>ATOM
      1 O1         -3.9720    1.6260    0.8420 O.3       1 LIG        -0.3630
      2 C1         -5.3030    2.1940    0.7610 C.3       1 LIG         0.0400
      3 H1         -5.3180    3.1010    1.3660 H         1 LIG         0.0800
      4 H2         -6.0140    1.4660    1.1520 H         1 LIG         0.0800
      5 H3         -5.5150    2.4320   -0.2820 H         1 LIG         0.0800
      6 C2         -3.5580    0.4660    0.2080 C.ar      1 LIG         0.0830
      7 C3         -2.2400    0.0260    0.3950 C.ar      1 LIG         0.1660
      8 C4         -1.2660    0.7990    1.2680 C.3       1 LIG         0.2390
      9 H4         -0.6480    0.1010    1.8070 H         1 LIG         0.0800
     10 H5         -1.8090    1.4490    1.9380 H         1 LIG         0.0800
     11 N1         -0.4490    1.6270    0.3650 N.pl3     1 LIG         0.0480
     12 C5          0.9460    1.6330    0.2130 C.ar      1 LIG        -0.1520
     13 C6          2.0080    0.8600    0.7410 C.ar      1 LIG         0.4100
     14 N2          1.8540   -0.2730    1.4320 N.pl3     1 LIG        -0.8690
     15 H6          2.6690   -0.5320    2.0100 H         1 LIG         0.4000
     16 C7          1.2200   -1.4280    0.7970 C.3       1 LIG         0.2090
     17 H7          0.5030   -1.9030    1.4710 H         1 LIG         0.0800
     18 H8          0.7270   -1.1480   -0.1360 H         1 LIG         0.0800
     19 C8          2.3720   -2.3890    0.4950 C.3       1 LIG        -0.1600
     20 H9          3.1040   -1.8860   -0.1390 H         1 LIG         0.0800
     21 H10         2.8530   -2.6830    1.4290 H         1 LIG         0.0800
     22 C9          1.8560   -3.6420   -0.2270 C.3       1 LIG        -0.1600
     23 H11         1.1230   -4.1520    0.4020 H         1 LIG         0.0800
     24 H12         1.3720   -3.3530   -1.1630 H         1 LIG         0.0800
     25 C10         3.0100   -4.6010   -0.5330 C.3       1 LIG        -0.2400
     26 H13         3.4900   -4.9190    0.3940 H         1 LIG         0.0800
     27 H14         3.7480   -4.1100   -1.1700 H         1 LIG         0.0800
     28 H15         2.6270   -5.4810   -1.0510 H         1 LIG         0.0800
     29 N3          3.2590    1.2070    0.5350 N.ar      1 LIG        -0.6200
     30 C11         3.4980    2.2520   -0.2600 C.ar      1 LIG         0.7710
     31 N4          4.7570    2.6050   -0.4910 N.pl3     1 LIG        -0.9000
     32 H16         5.0550    3.3910   -1.0830 H         1 LIG         0.4000
     33 H17         5.4870    2.0370   -0.0280 H         1 LIG         0.4000
     34 N5          2.5430    2.9810   -0.8590 N.ar      1 LIG        -0.1250
     35 H18         2.8220    3.7520   -1.4690 H         1 LIG         0.4570
     36 C12         1.2190    2.6900   -0.6120 C.ar      1 LIG         0.3070
     37 C13         0.0450    3.3210   -1.0150 C.2       1 LIG        -0.1500
     38 H19        -0.0550    4.1580   -1.6580 H         1 LIG         0.1500
     39 C14        -0.9760    2.6550   -0.3970 C.2       1 LIG        -0.3020
     40 H20        -2.0220    2.8350   -0.4320 H         1 LIG         0.1500
     41 N6         -1.8020   -1.0910   -0.1990 N.ar      1 LIG        -0.6200
     42 C15        -2.6210   -1.7980   -0.9810 C.ar      1 LIG         0.1600
     43 H21        -2.2420   -2.6780   -1.4360 H         1 LIG         0.1500
     44 C16        -3.9390   -1.4070   -1.2040 C.ar      1 LIG        -0.1500
     45 H22        -4.5630   -1.9900   -1.8300 H         1 LIG         0.1500
     46 C17        -4.4280   -0.2570   -0.6030 C.ar      1 LIG        -0.1500
     47 H23        -5.4270    0.0520   -0.7630 H         1 LIG         0.1500
@<TRIPOS>BOND
  1   1   2  1   
  2   1   6  1   
  3   2   3  1   
  4   2   4  1   
  5   2   5  1   
  6   6   7  ar  
  7   6  46  ar  
  8   7   8  1   
  9   7  41  ar  
 10   8   9  1   
 11   8  10  1   
 12   8  11  1   
 13  11  12  1   
 14  11  39  1   
 15  12  13  ar  
 16  12  36  ar  
 17  13  14  1   
 18  13  29  ar  
 19  14  15  1   
 20  14  16  1   
 21  16  17  1   
 22  16  18  1   
 23  16  19  1   
 24  19  20  1   
 25  19  21  1   
 26  19  22  1   
 27  22  23  1   
 28  22  24  1   
 29  22  25  1   
 30  25  26  1   
 31  25  27  1   
 32  25  28  1   
 33  29  30  ar  
 34  30  31  1   
 35  30  34  ar  
 36  31  32  1   
 37  31  33  1   
 38  34  35  1   
 39  34  36  ar  
 40  36  37  1   
 41  37  38  1   
 42  37  39  2   
 43  39  40  1   
 44  41  42  ar  
 45  42  43  1   
 46  42  44  ar  
 47  44  45  1   
 48  44  46  ar  
 49  46  47  1   
@<TRIPOS>SUBSTRUCTURE
  1 ****  11 GROUP 4 **** **** 0

# MOE 2018.01 (io_trps.svl 2018.01)

@<TRIPOS>MOLECULE
CHEMBL1271706
54 57 1 0 0 
SMALL
USER_CHARGES


@<TRIPOS>ATOM
      1 N1          4.7500    3.0430    0.8070 N.4       1 LIG        -0.8530
      2 H1          5.5620    3.4070    1.2840 H         1 LIG         0.4500
      3 H2          3.9020    3.5100    1.0980 H         1 LIG         0.4500
      4 H3          4.8310    3.1240   -0.1960 H         1 LIG         0.4500
      5 C1          4.5870    1.6300    1.1110 C.3       1 LIG         0.4870
      6 H4          5.4310    1.0520    0.7500 H         1 LIG         0.0800
      7 H5          4.3850    1.4760    2.1660 H         1 LIG         0.0800
      8 C2          3.3600    1.2790    0.3090 C.ar      1 LIG        -0.1440
      9 C3          3.4810    0.8330   -1.0060 C.ar      1 LIG        -0.1500
     10 H6          4.4360    0.7190   -1.4550 H         1 LIG         0.1500
     11 C4          2.3470    0.5160   -1.7470 C.ar      1 LIG        -0.1500
     12 H7          2.4590    0.1740   -2.7460 H         1 LIG         0.1500
     13 C5          1.0750    0.6330   -1.1870 C.ar      1 LIG        -0.1440
     14 C6         -0.1430    0.2590   -2.0280 C.3       1 LIG         0.2390
     15 H8          0.1780   -0.3330   -2.8740 H         1 LIG         0.0800
     16 H9         -0.6450    1.1430   -2.3800 H         1 LIG         0.0800
     17 N2         -1.0470   -0.5620   -1.2030 N.pl3     1 LIG         0.0480
     18 C7         -0.9100   -1.9250   -1.0150 C.2       1 LIG         0.0060
     19 C8          0.2670   -2.7560   -1.5160 C.3       1 LIG         0.0200
     20 H10        -0.1200   -3.5460   -2.1600 H         1 LIG         0.0800
     21 H11         0.9970   -2.1740   -2.0740 H         1 LIG         0.0800
     22 C9          0.9560   -3.3980   -0.2970 C.3       1 LIG        -0.1600
     23 H12         0.2210   -3.9740    0.2700 H         1 LIG         0.0800
     24 H13         1.7130   -4.0940   -0.6610 H         1 LIG         0.0800
     25 C10         1.6300   -2.3750    0.6320 C.3       1 LIG        -0.1600
     26 H14         2.3590   -1.7930    0.0670 H         1 LIG         0.0800
     27 H15         0.8770   -1.7000    1.0420 H         1 LIG         0.0800
     28 C11         2.3400   -3.0840    1.7890 C.3       1 LIG        -0.2400
     29 H16         3.1080   -3.7560    1.4030 H         1 LIG         0.0800
     30 H17         1.6190   -3.6610    2.3690 H         1 LIG         0.0800
     31 H18         2.8080   -2.3460    2.4410 H         1 LIG         0.0800
     32 N3         -1.9220   -2.4070   -0.3680 N.2       1 LIG        -0.5650
     33 C12        -2.7300   -1.3420   -0.1040 C.ar      1 LIG         0.2270
     34 C13        -4.0000   -1.3330    0.5490 C.ar      1 LIG         0.4610
     35 N4         -4.6040   -2.4180    1.0360 N.pl3     1 LIG        -0.9000
     36 H19        -5.5210   -2.4360    1.5090 H         1 LIG         0.4000
     37 H20        -4.1020   -3.3250    0.9320 H         1 LIG         0.4000
     38 N5         -4.6610   -0.1840    0.6930 N.ar      1 LIG        -0.1790
     39 H21        -5.5780   -0.2170    1.1510 H         1 LIG         0.4570
     40 C14        -4.1320    1.0500    0.2570 C.ar      1 LIG         0.3610
     41 C15        -2.8560    1.0940   -0.3600 C.ar      1 LIG         0.0000
     42 C16        -2.1920   -0.1740   -0.5760 C.ar      1 LIG        -0.1520
     43 C17        -2.3400    2.3690   -0.6790 C.ar      1 LIG        -0.1500
     44 H22        -1.3700    2.4800   -1.0800 H         1 LIG         0.1500
     45 C18        -3.0910    3.5120   -0.4570 C.ar      1 LIG        -0.1500
     46 H23        -2.6960    4.4640   -0.7140 H         1 LIG         0.1500
     47 C19        -4.3690    3.4340    0.1110 C.ar      1 LIG        -0.1500
     48 H24        -4.9280    4.3240    0.2660 H         1 LIG         0.1500
     49 C20        -4.8920    2.2060    0.4750 C.ar      1 LIG        -0.1500
     50 H25        -5.8540    2.1520    0.9180 H         1 LIG         0.1500
     51 C21         0.9570    1.0920    0.1270 C.ar      1 LIG        -0.1500
     52 H26         0.0030    1.1900    0.5780 H         1 LIG         0.1500
     53 C22         2.0900    1.4090    0.8700 C.ar      1 LIG        -0.1500
     54 H27         1.9700    1.7370    1.8730 H         1 LIG         0.1500
@<TRIPOS>BOND
  1   1   2  1   
  2   1   3  1   
  3   1   4  1   
  4   1   5  1   
  5   5   6  1   
  6   5   7  1   
  7   5   8  1   
  8   8   9  ar  
  9   8  53  ar  
 10   9  10  1   
 11   9  11  ar  
 12  11  12  1   
 13  11  13  ar  
 14  13  14  1   
 15  13  51  ar  
 16  14  15  1   
 17  14  16  1   
 18  14  17  1   
 19  17  18  1   
 20  17  42  1   
 21  18  19  1   
 22  18  32  2   
 23  19  20  1   
 24  19  21  1   
 25  19  22  1   
 26  22  23  1   
 27  22  24  1   
 28  22  25  1   
 29  25  26  1   
 30  25  27  1   
 31  25  28  1   
 32  28  29  1   
 33  28  30  1   
 34  28  31  1   
 35  32  33  1   
 36  33  34  ar  
 37  33  42  ar  
 38  34  35  1   
 39  34  38  ar  
 40  35  36  1   
 41  35  37  1   
 42  38  39  1   
 43  38  40  ar  
 44  40  41  ar  
 45  40  49  ar  
 46  41  42  ar  
 47  41  43  ar  
 48  43  44  1   
 49  43  45  ar  
 50  45  46  1   
 51  45  47  ar  
 52  47  48  1   
 53  47  49  ar  
 54  49  50  1   
 55  51  52  1   
 56  51  53  ar  
 57  53  54  1   
@<TRIPOS>SUBSTRUCTURE
  1 ****  17 GROUP 4 **** **** 0

# MOE 2018.01 (io_trps.svl 2018.01)

@<TRIPOS>MOLECULE
CHEMBL426485
47 49 1 0 0 
SMALL
USER_CHARGES


@<TRIPOS>ATOM
      1 O1          1.4790   -3.0250   -0.1040 O.3       1 LIG        -0.3630
      2 C1          2.2650   -3.5020    1.0170 C.3       1 LIG         0.0400
      3 H1          3.3010   -3.5870    0.6860 H         1 LIG         0.0800
      4 H2          1.8860   -4.4800    1.3160 H         1 LIG         0.0800
      5 H3          2.1870   -2.7820    1.8320 H         1 LIG         0.0800
      6 C2          0.1280   -2.8770   -0.1140 C.ar      1 LIG         0.3920
      7 N1         -0.4000   -2.6160   -1.3100 N.ar      1 LIG        -0.6200
      8 C3         -1.7090   -2.4250   -1.4270 C.ar      1 LIG         0.1600
      9 H4         -2.1050   -2.2620   -2.4010 H         1 LIG         0.1500
     10 C4         -2.5210   -2.3230   -0.2970 C.ar      1 LIG        -0.1440
     11 C5         -3.8910   -1.7030   -0.4240 C.3       1 LIG         0.2840
     12 H5         -4.5360   -2.0790    0.3620 H         1 LIG         0.0800
     13 H6         -4.2960   -1.8830   -1.4120 H         1 LIG         0.0800
     14 N2         -3.6560   -0.2490   -0.2300 N.am      1 LIG        -0.4770
     15 C6         -4.7280    0.5960   -0.0050 C.2       1 LIG         0.6900
     16 O2         -5.9010    0.2630    0.0450 O.2       1 LIG        -0.5700
     17 N3         -4.2480    1.8620    0.1540 N.am      1 LIG        -0.5470
     18 H7         -4.8840    2.6530    0.3360 H         1 LIG         0.3700
     19 C7         -2.8530    1.8490    0.0280 C.ar      1 LIG         0.1170
     20 C8         -1.8210    2.8040    0.0930 C.ar      1 LIG         0.4100
     21 N4         -2.0280    4.1070    0.3280 N.pl3     1 LIG        -0.9000
     22 H8         -1.2130    4.7400    0.3600 H         1 LIG         0.4000
     23 H9         -2.9670    4.5020    0.4810 H         1 LIG         0.4000
     24 N5         -0.5520    2.4500   -0.0800 N.ar      1 LIG        -0.6200
     25 C9         -0.2770    1.1630   -0.3220 C.ar      1 LIG         0.7710
     26 N6          0.9670    0.6960   -0.5170 N.pl3     1 LIG        -0.8690
     27 H10         1.1400   -0.2810   -0.8130 H         1 LIG         0.4000
     28 C10         2.1350    1.5730   -0.4850 C.3       1 LIG         0.2090
     29 H11         2.1420    2.2450   -1.3480 H         1 LIG         0.0800
     30 H12         2.1590    2.1560    0.4390 H         1 LIG         0.0800
     31 C11         3.3310    0.6180   -0.5490 C.3       1 LIG        -0.1600
     32 H13         3.3180   -0.0420    0.3210 H         1 LIG         0.0800
     33 H14         3.2480    0.0040   -1.4480 H         1 LIG         0.0800
     34 C12         4.6800    1.3520   -0.6010 C.3       1 LIG        -0.1600
     35 H15         5.4710    0.6120   -0.7430 H         1 LIG         0.0800
     36 H16         4.6980    2.0280   -1.4580 H         1 LIG         0.0800
     37 C13         4.9820    2.1440    0.6780 C.3       1 LIG        -0.2400
     38 H17         4.9380    1.4860    1.5470 H         1 LIG         0.0800
     39 H18         4.2710    2.9610    0.8030 H         1 LIG         0.0800
     40 H19         5.9850    2.5680    0.6120 H         1 LIG         0.0800
     41 N7         -1.2230    0.2140   -0.3880 N.ar      1 LIG        -0.1790
     42 H20        -0.9260   -0.7590   -0.5650 H         1 LIG         0.4570
     43 C14        -2.5300    0.5510   -0.2100 C.ar      1 LIG         0.4780
     44 C15        -1.9940   -2.6260    0.9580 C.ar      1 LIG        -0.1500
     45 H21        -2.6000   -2.5990    1.8310 H         1 LIG         0.1500
     46 C16        -0.6450   -2.9310    1.0460 C.ar      1 LIG        -0.1500
     47 H22        -0.2070   -3.1710    1.9790 H         1 LIG         0.1500
@<TRIPOS>BOND
  1   1   2  1   
  2   1   6  1   
  3   2   3  1   
  4   2   4  1   
  5   2   5  1   
  6   6   7  ar  
  7   6  46  ar  
  8   7   8  ar  
  9   8   9  1   
 10   8  10  ar  
 11  10  11  1   
 12  10  44  ar  
 13  11  12  1   
 14  11  13  1   
 15  11  14  1   
 16  14  15  am  
 17  14  43  1   
 18  15  16  2   
 19  15  17  am  
 20  17  18  1   
 21  17  19  1   
 22  19  20  ar  
 23  19  43  ar  
 24  20  21  1   
 25  20  24  ar  
 26  21  22  1   
 27  21  23  1   
 28  24  25  ar  
 29  25  26  1   
 30  25  41  ar  
 31  26  27  1   
 32  26  28  1   
 33  28  29  1   
 34  28  30  1   
 35  28  31  1   
 36  31  32  1   
 37  31  33  1   
 38  31  34  1   
 39  34  35  1   
 40  34  36  1   
 41  34  37  1   
 42  37  38  1   
 43  37  39  1   
 44  37  40  1   
 45  41  42  1   
 46  41  43  ar  
 47  44  45  1   
 48  44  46  ar  
 49  46  47  1   
@<TRIPOS>SUBSTRUCTURE
  1 ****  41 GROUP 4 **** **** 0

# MOE 2018.01 (io_trps.svl 2018.01)

@<TRIPOS>MOLECULE
CHEMBL4079841
41 43 1 0 0 
SMALL
USER_CHARGES


@<TRIPOS>ATOM
      1 N1         -0.6320   -0.7940   -0.3530 N.pl3     1 LIG        -0.8690
      2 H1         -1.1770   -1.0900   -1.1790 H         1 LIG         0.4000
      3 C1         -1.1080   -1.4340    0.8760 C.3       1 LIG         0.2090
      4 H2         -0.6820   -0.9600    1.7630 H         1 LIG         0.0800
      5 H3         -0.8600   -2.4980    0.8760 H         1 LIG         0.0800
      6 C2         -2.6320   -1.2560    0.8880 C.3       1 LIG        -0.1600
      7 H4         -3.0010   -1.6110    1.8510 H         1 LIG         0.0800
      8 H5         -2.8750   -0.1950    0.8090 H         1 LIG         0.0800
      9 C3         -3.3540   -2.0330   -0.2280 C.3       1 LIG        -0.1600
     10 H6         -3.0580   -1.6500   -1.2060 H         1 LIG         0.0800
     11 H7         -3.0890   -3.0910   -0.1710 H         1 LIG         0.0800
     12 C4         -4.8720   -1.8890   -0.0860 C.3       1 LIG        -0.2400
     13 H8         -5.1570   -0.8380   -0.1510 H         1 LIG         0.0800
     14 H9         -5.2010   -2.2920    0.8730 H         1 LIG         0.0800
     15 H10        -5.3690   -2.4380   -0.8870 H         1 LIG         0.0800
     16 C5         -0.2920    0.5000   -0.3710 C.ar      1 LIG         0.4100
     17 N2         -1.0240    1.2460   -1.1670 N.ar      1 LIG        -0.6200
     18 C6         -0.8440    2.5700   -1.1320 C.ar      1 LIG         0.7710
     19 N3         -1.5750    3.3380   -1.9310 N.pl3     1 LIG        -0.9000
     20 H11        -1.5050    4.3610   -1.9990 H         1 LIG         0.4000
     21 H12        -2.2460    2.8510   -2.5490 H         1 LIG         0.4000
     22 N4          0.0310    3.1930   -0.3230 N.ar      1 LIG        -0.1250
     23 H13         0.0850    4.2130   -0.3510 H         1 LIG         0.4570
     24 C7          0.8560    2.4390    0.4850 C.ar      1 LIG         0.3070
     25 C8          0.7230    1.0790    0.4250 C.ar      1 LIG        -0.1520
     26 N5          1.7640    0.5650    1.2080 N.pl3     1 LIG         0.0480
     27 C9          2.2510   -0.8200    1.2670 C.3       1 LIG         0.2770
     28 H14         1.4480   -1.5220    1.1170 H         1 LIG         0.0800
     29 H15         2.7760   -0.9770    2.1990 H         1 LIG         0.0800
     30 C10         3.2260   -0.9420    0.1140 C.2       1 LIG        -0.1810
     31 C11         4.5730   -0.7340    0.2290 C.2       1 LIG        -0.1100
     32 H16         5.1160   -0.4780    1.1020 H         1 LIG         0.1500
     33 S1          5.3950   -0.9310   -1.2770 S.3       1 LIG        -0.0800
     34 C12         3.9050   -1.2970   -2.0680 C.2       1 LIG        -0.1100
     35 H17         3.8820   -1.5140   -3.1050 H         1 LIG         0.1500
     36 C13         2.8480   -1.2630   -1.2040 C.2       1 LIG        -0.1500
     37 H18         1.8500   -1.4590   -1.5040 H         1 LIG         0.1500
     38 C14         2.4430    1.6220    1.7840 C.2       1 LIG        -0.3020
     39 H19         3.2730    1.4610    2.4270 H         1 LIG         0.1500
     40 C15         1.8910    2.7940    1.3470 C.2       1 LIG        -0.1500
     41 H20         2.2150    3.7710    1.6030 H         1 LIG         0.1500
@<TRIPOS>BOND
  1   1   2  1   
  2   1   3  1   
  3   1  16  1   
  4   3   4  1   
  5   3   5  1   
  6   3   6  1   
  7   6   7  1   
  8   6   8  1   
  9   6   9  1   
 10   9  10  1   
 11   9  11  1   
 12   9  12  1   
 13  12  13  1   
 14  12  14  1   
 15  12  15  1   
 16  16  17  ar  
 17  16  25  ar  
 18  17  18  ar  
 19  18  19  1   
 20  18  22  ar  
 21  19  20  1   
 22  19  21  1   
 23  22  23  1   
 24  22  24  ar  
 25  24  25  ar  
 26  24  40  1   
 27  25  26  1   
 28  26  27  1   
 29  26  38  1   
 30  27  28  1   
 31  27  29  1   
 32  27  30  1   
 33  30  31  2   
 34  30  36  1   
 35  31  32  1   
 36  31  33  1   
 37  33  34  1   
 38  34  35  1   
 39  34  36  2   
 40  36  37  1   
 41  38  39  1   
 42  38  40  2   
 43  40  41  1   
@<TRIPOS>SUBSTRUCTURE
  1 ****  25 GROUP 4 **** **** 0

# MOE 2018.01 (io_trps.svl 2018.01)

@<TRIPOS>MOLECULE
CHEMBL1836895
48 51 1 0 0 
SMALL
USER_CHARGES


@<TRIPOS>ATOM
      1 F1         -4.6050    3.5440    0.0090 F         1 LIG        -0.3400
      2 C1         -5.6480    2.7120   -0.2030 C.3       1 LIG         1.1640
      3 F2         -6.0460    2.8560   -1.4840 F         1 LIG        -0.3400
      4 F3         -6.6610    3.0650    0.6140 F         1 LIG        -0.3400
      5 C2         -5.1840    1.2490    0.0240 C.ar      1 LIG         0.1660
      6 N1         -5.8360    0.4310    0.9200 N.ar      1 LIG        -0.6200
      7 C3         -5.4230   -0.8160    1.1030 C.ar      1 LIG         0.4100
      8 N2         -6.1520   -1.5300    2.0100 N.pl3     1 LIG        -0.9000
      9 H1         -7.0280   -1.0420    2.2400 H         1 LIG         0.4000
     10 H2         -6.2670   -2.5240    1.7790 H         1 LIG         0.4000
     11 C4         -4.3250   -1.3330    0.4010 C.ar      1 LIG         0.1170
     12 N3         -3.6700   -2.5660    0.4080 N.am      1 LIG        -0.5470
     13 H3         -3.8700   -3.3860    0.9940 H         1 LIG         0.3700
     14 C5         -2.6240   -2.5280   -0.4520 C.2       1 LIG         0.6900
     15 O1         -1.8020   -3.4230   -0.6380 O.2       1 LIG        -0.5700
     16 N4         -2.6180   -1.2800   -1.0340 N.am      1 LIG        -0.4770
     17 C6         -1.6090   -0.8550   -1.9940 C.3       1 LIG         0.2840
     18 H4         -1.3690   -1.6790   -2.6550 H         1 LIG         0.0800
     19 H5         -1.9540    0.0170   -2.5340 H         1 LIG         0.0800
     20 C7         -0.3990   -0.5000   -1.1480 C.ar      1 LIG        -0.1440
     21 C8          0.4920   -1.4810   -0.7640 C.ar      1 LIG         0.2110
     22 H6          0.4230   -2.5080   -1.0340 H         1 LIG         0.1500
     23 N5          1.5490   -1.1620    0.0380 N.ar      1 LIG        -0.1790
     24 H7          2.1910   -1.8940    0.3630 H         1 LIG         0.4570
     25 C9          1.7740    0.0900    0.4570 C.ar      1 LIG         0.4610
     26 N6          2.8510    0.2980    1.2380 N.pl3     1 LIG        -0.8690
     27 H8          3.0190    1.2770    1.5330 H         1 LIG         0.4000
     28 C10         4.0270   -0.5570    1.4640 C.3       1 LIG         0.3530
     29 H9          4.2820   -0.5590    2.5170 H         1 LIG         0.0800
     30 H10         3.9080   -1.5560    1.0690 H         1 LIG         0.0800
     31 C11         5.1150    0.1560    0.6940 C.ar      1 LIG        -0.1440
     32 C12         5.3700   -0.1640   -0.6410 C.ar      1 LIG        -0.1500
     33 H11         4.8110   -0.9190   -1.1300 H         1 LIG         0.1500
     34 C13         6.3640    0.5080   -1.3460 C.ar      1 LIG        -0.1500
     35 H12         6.5570    0.2620   -2.3590 H         1 LIG         0.1500
     36 C14         7.1070    1.5040   -0.7240 C.ar      1 LIG        -0.1500
     37 H13         7.8650    2.0160   -1.2620 H         1 LIG         0.1500
     38 C15         6.8580    1.8290    0.6050 C.ar      1 LIG        -0.1500
     39 H14         7.4270    2.5880    1.0790 H         1 LIG         0.1500
     40 C16         5.8660    1.1580    1.3120 C.ar      1 LIG        -0.1500
     41 H15         5.6880    1.4150    2.3250 H         1 LIG         0.1500
     42 C17         0.8860    1.1200    0.0840 C.ar      1 LIG        -0.1500
     43 H16         1.0660    2.1070    0.4270 H         1 LIG         0.1500
     44 C18        -0.1960    0.8280   -0.7120 C.ar      1 LIG        -0.1500
     45 H17        -0.8760    1.5950   -0.9930 H         1 LIG         0.1500
     46 C19        -3.6660   -0.5360   -0.4950 C.ar      1 LIG         0.1170
     47 C20        -4.0860    0.7760   -0.7060 C.ar      1 LIG        -0.1500
     48 H18        -3.5840    1.3970   -1.4020 H         1 LIG         0.1500
@<TRIPOS>BOND
  1   1   2  1   
  2   2   3  1   
  3   2   4  1   
  4   2   5  1   
  5   5   6  ar  
  6   5  47  ar  
  7   6   7  ar  
  8   7   8  1   
  9   7  11  ar  
 10   8   9  1   
 11   8  10  1   
 12  11  12  1   
 13  11  46  ar  
 14  12  13  1   
 15  12  14  am  
 16  14  15  2   
 17  14  16  am  
 18  16  17  1   
 19  16  46  1   
 20  17  18  1   
 21  17  19  1   
 22  17  20  1   
 23  20  21  ar  
 24  20  44  ar  
 25  21  22  1   
 26  21  23  ar  
 27  23  24  1   
 28  23  25  ar  
 29  25  26  1   
 30  25  42  ar  
 31  26  27  1   
 32  26  28  1   
 33  28  29  1   
 34  28  30  1   
 35  28  31  1   
 36  31  32  ar  
 37  31  40  ar  
 38  32  33  1   
 39  32  34  ar  
 40  34  35  1   
 41  34  36  ar  
 42  36  37  1   
 43  36  38  ar  
 44  38  39  1   
 45  38  40  ar  
 46  40  41  1   
 47  42  43  1   
 48  42  44  ar  
 49  44  45  1   
 50  46  47  ar  
 51  47  48  1   
@<TRIPOS>SUBSTRUCTURE
  1 ****  44 GROUP 4 **** **** 0

# MOE 2018.01 (io_trps.svl 2018.01)

@<TRIPOS>MOLECULE
CHEMBL383765
46 48 1 0 0 
SMALL
USER_CHARGES


@<TRIPOS>ATOM
      1 O1         -2.4200   -3.3890    1.7390 O.2       1 LIG        -0.5700
      2 C1         -1.5300   -2.8710    1.0750 C.2       1 LIG         0.6900
      3 N1         -1.1410   -1.5540    1.1190 N.am      1 LIG        -0.4770
      4 C2         -1.7610   -0.5440    1.9540 C.3       1 LIG         0.2840
      5 H1         -2.3020   -1.0150    2.7670 H         1 LIG         0.0800
      6 H2         -1.0080    0.1510    2.3030 H         1 LIG         0.0800
      7 C3         -2.7320    0.1580    1.0230 C.ar      1 LIG        -0.1440
      8 C4         -2.3000    1.2140    0.2270 C.ar      1 LIG         0.2110
      9 H3         -1.3130    1.6110    0.2230 H         1 LIG         0.1500
     10 N2         -3.1610    1.7980   -0.6280 N.ar      1 LIG        -0.1790
     11 H4         -2.8140    2.5740   -1.2230 H         1 LIG         0.4570
     12 C5         -4.4450    1.4140   -0.7530 C.ar      1 LIG         0.2170
     13 C6         -5.2700    2.1830   -1.7630 C.3       1 LIG        -0.0970
     14 H5         -6.2780    1.7640   -1.7780 H         1 LIG         0.0800
     15 H6         -4.8160    2.0770   -2.7490 H         1 LIG         0.0800
     16 H7         -5.3150    3.2310   -1.4620 H         1 LIG         0.0800
     17 C7         -4.9080    0.3630    0.0310 C.ar      1 LIG        -0.1500
     18 H8         -5.9150    0.0400   -0.0530 H         1 LIG         0.1500
     19 C8         -4.0520   -0.2740    0.9210 C.ar      1 LIG        -0.1500
     20 H9         -4.4000   -1.0910    1.5090 H         1 LIG         0.1500
     21 C9         -0.1460   -1.3610    0.1890 C.ar      1 LIG         0.4270
     22 N3          0.4740   -0.2220   -0.1020 N.ar      1 LIG        -0.6200
     23 C10         1.3830   -0.3440   -1.0720 C.ar      1 LIG         0.7200
     24 N4          2.0820    0.7570   -1.4500 N.pl3     1 LIG        -0.8690
     25 H10         2.7930    0.4740   -2.1360 H         1 LIG         0.4000
     26 C11         2.5970    1.6720   -0.4310 C.3       1 LIG         0.2090
     27 H11         2.8960    2.6140   -0.8960 H         1 LIG         0.0800
     28 H12         1.8560    1.8770    0.3450 H         1 LIG         0.0800
     29 C12         3.8250    0.9830    0.1730 C.3       1 LIG        -0.1600
     30 H13         3.5230    0.0430    0.6390 H         1 LIG         0.0800
     31 H14         4.5450    0.7660   -0.6180 H         1 LIG         0.0800
     32 C13         4.4890    1.8750    1.2310 C.3       1 LIG        -0.1600
     33 H15         4.8180    2.8090    0.7710 H         1 LIG         0.0800
     34 H16         3.7720    2.1060    2.0220 H         1 LIG         0.0800
     35 C14         5.7000    1.1660    1.8480 C.3       1 LIG        -0.2400
     36 H17         6.4360    0.9400    1.0750 H         1 LIG         0.0800
     37 H18         5.3870    0.2380    2.3280 H         1 LIG         0.0800
     38 H19         6.1610    1.8120    2.5960 H         1 LIG         0.0800
     39 N5          1.7010   -1.4520   -1.7620 N.ar      1 LIG        -0.6200
     40 C15         1.0650   -2.5620   -1.4440 C.ar      1 LIG         0.4100
     41 N6          1.4110   -3.6690   -2.1630 N.pl3     1 LIG        -0.9000
     42 H20         1.9470   -3.4360   -3.0110 H         1 LIG         0.4000
     43 H21         0.6790   -4.3800   -2.2820 H         1 LIG         0.4000
     44 C16         0.0990   -2.5520   -0.4370 C.ar      1 LIG         0.1170
     45 N7         -0.7680   -3.4920    0.1380 N.am      1 LIG        -0.5470
     46 H22        -0.8410   -4.5030   -0.0340 H         1 LIG         0.3700
@<TRIPOS>BOND
  1   1   2  2   
  2   2   3  am  
  3   2  45  am  
  4   3   4  1   
  5   3  21  1   
  6   4   5  1   
  7   4   6  1   
  8   4   7  1   
  9   7   8  ar  
 10   7  19  ar  
 11   8   9  1   
 12   8  10  ar  
 13  10  11  1   
 14  10  12  ar  
 15  12  13  1   
 16  12  17  ar  
 17  13  14  1   
 18  13  15  1   
 19  13  16  1   
 20  17  18  1   
 21  17  19  ar  
 22  19  20  1   
 23  21  22  ar  
 24  21  44  ar  
 25  22  23  ar  
 26  23  24  1   
 27  23  39  ar  
 28  24  25  1   
 29  24  26  1   
 30  26  27  1   
 31  26  28  1   
 32  26  29  1   
 33  29  30  1   
 34  29  31  1   
 35  29  32  1   
 36  32  33  1   
 37  32  34  1   
 38  32  35  1   
 39  35  36  1   
 40  35  37  1   
 41  35  38  1   
 42  39  40  ar  
 43  40  41  1   
 44  40  44  ar  
 45  41  42  1   
 46  41  43  1   
 47  44  45  1   
 48  45  46  1   
@<TRIPOS>SUBSTRUCTURE
  1 ****  22 GROUP 4 **** **** 0

# MOE 2018.01 (io_trps.svl 2018.01)

@<TRIPOS>MOLECULE
CHEMBL1836896
46 49 1 0 0 
SMALL
USER_CHARGES


@<TRIPOS>ATOM
      1 F1          6.5380   -2.3410   -0.9310 F         1 LIG        -0.3400
      2 C1          6.0850   -2.0870    0.3140 C.3       1 LIG         1.1640
      3 F2          5.2940   -3.1150    0.6940 F         1 LIG        -0.3400
      4 F3          7.1350   -2.0110    1.1580 F         1 LIG        -0.3400
      5 C2          5.2440   -0.7820    0.2950 C.ar      1 LIG         0.1660
      6 N1          5.6660    0.3390    0.9750 N.ar      1 LIG        -0.6200
      7 C3          4.9450    1.4500    0.9400 C.ar      1 LIG         0.4100
      8 N2          5.4660    2.4940    1.6500 N.pl3     1 LIG        -0.9000
      9 H1          6.4450    2.3100    1.9090 H         1 LIG         0.4000
     10 H2          5.3030    3.4190    1.2360 H         1 LIG         0.4000
     11 C4          3.7450    1.5200    0.2190 C.ar      1 LIG         0.1170
     12 N3          2.8050    2.5310    0.0120 N.am      1 LIG        -0.5470
     13 H3          2.8100    3.4900    0.3800 H         1 LIG         0.3700
     14 C5          1.8020    2.0670   -0.7700 C.2       1 LIG         0.6900
     15 O1          0.7950    2.6880   -1.0910 O.2       1 LIG        -0.5700
     16 N4          2.0880    0.7490   -1.0610 N.am      1 LIG        -0.4770
     17 C6          1.2780   -0.0760   -1.9600 C.3       1 LIG         0.2840
     18 H4          1.2250    0.4210   -2.9220 H         1 LIG         0.0800
     19 H5          1.7040   -1.0670   -2.0370 H         1 LIG         0.0800
     20 C7         -0.1360   -0.1950   -1.3910 C.ar      1 LIG        -0.1440
     21 C8         -0.4220   -0.0070   -0.0510 C.ar      1 LIG         0.2110
     22 H6          0.2920    0.2170    0.7040 H         1 LIG         0.1500
     23 N5         -1.7110   -0.0930    0.3870 N.ar      1 LIG        -0.1790
     24 H7         -1.9520    0.0240    1.3800 H         1 LIG         0.4570
     25 C9         -2.7290   -0.3590   -0.4330 C.ar      1 LIG         0.4610
     26 N6         -3.9340   -0.4010    0.1810 N.pl3     1 LIG        -0.8380
     27 C10        -5.0400   -1.2080   -0.4180 C.3       1 LIG         0.2090
     28 H8         -4.6460   -2.0790   -0.9260 H         1 LIG         0.0800
     29 H9         -5.6440   -0.5820   -1.0640 H         1 LIG         0.0800
     30 C11        -5.9290   -1.7030    0.7450 C.3       1 LIG         0.1200
     31 H10        -6.7750   -2.2610    0.3400 H         1 LIG         0.0800
     32 H11        -5.3580   -2.3510    1.4110 H         1 LIG         0.0800
     33 O2         -6.4070   -0.5510    1.4390 O.3       1 LIG        -0.5600
     34 C12        -5.3670    0.1710    2.0950 C.3       1 LIG         0.1200
     35 H12        -4.8070   -0.4830    2.7650 H         1 LIG         0.0800
     36 H13        -5.8030    0.9880    2.6720 H         1 LIG         0.0800
     37 C13        -4.4440    0.7510    0.9980 C.3       1 LIG         0.2090
     38 H14        -3.6430    1.2940    1.4810 H         1 LIG         0.0800
     39 H15        -5.0440    1.3970    0.3690 H         1 LIG         0.0800
     40 C14        -2.4770   -0.5980   -1.8020 C.ar      1 LIG        -0.1500
     41 H16        -3.2840   -0.8210   -2.4500 H         1 LIG         0.1500
     42 C15        -1.1900   -0.5100   -2.2770 C.ar      1 LIG        -0.1500
     43 H17        -0.9910   -0.6690   -3.3090 H         1 LIG         0.1500
     44 C16         3.3000    0.4150   -0.4560 C.ar      1 LIG         0.1170
     45 C17         4.0480   -0.7630   -0.4360 C.ar      1 LIG        -0.1500
     46 H18         3.7180   -1.6200   -0.9630 H         1 LIG         0.1500
@<TRIPOS>BOND
  1   1   2  1   
  2   2   3  1   
  3   2   4  1   
  4   2   5  1   
  5   5   6  ar  
  6   5  45  ar  
  7   6   7  ar  
  8   7   8  1   
  9   7  11  ar  
 10   8   9  1   
 11   8  10  1   
 12  11  12  1   
 13  11  44  ar  
 14  12  13  1   
 15  12  14  am  
 16  14  15  2   
 17  14  16  am  
 18  16  17  1   
 19  16  44  1   
 20  17  18  1   
 21  17  19  1   
 22  17  20  1   
 23  20  21  ar  
 24  20  42  ar  
 25  21  22  1   
 26  21  23  ar  
 27  23  24  1   
 28  23  25  ar  
 29  25  26  1   
 30  25  40  ar  
 31  26  27  1   
 32  26  37  1   
 33  27  28  1   
 34  27  29  1   
 35  27  30  1   
 36  30  31  1   
 37  30  32  1   
 38  30  33  1   
 39  33  34  1   
 40  34  35  1   
 41  34  36  1   
 42  34  37  1   
 43  37  38  1   
 44  37  39  1   
 45  40  41  1   
 46  40  42  ar  
 47  42  43  1   
 48  44  45  ar  
 49  45  46  1   
@<TRIPOS>SUBSTRUCTURE
  1 ****  21 GROUP 4 **** **** 0

# MOE 2018.01 (io_trps.svl 2018.01)

@<TRIPOS>MOLECULE
CHEMBL4100122
48 51 1 0 0 
SMALL
USER_CHARGES


@<TRIPOS>ATOM
      1 N1          0.4990   -0.4940    0.0530 N.pl3     1 LIG        -0.8690
      2 H1          0.0820   -0.9480    0.8730 H         1 LIG         0.4000
      3 C1          1.5480   -1.2580   -0.6420 C.3       1 LIG         0.4330
      4 C2          1.2210   -2.7330   -0.3840 C.3       1 LIG        -0.2400
      5 H2          1.9770   -3.3510   -0.8700 H         1 LIG         0.0800
      6 H3          0.2460   -2.9520   -0.8210 H         1 LIG         0.0800
      7 H4          1.2150   -2.9290    0.6890 H         1 LIG         0.0800
      8 C3          2.9300   -0.9580   -0.0340 C.ar      1 LIG         0.2170
      9 N2          3.9870   -1.0190   -0.8820 N.ar      1 LIG        -0.1790
     10 H5          3.8190   -1.2490   -1.8820 H         1 LIG         0.4570
     11 C4          5.2600   -0.7970   -0.4930 C.ar      1 LIG         0.2110
     12 H6          5.9990   -0.8760   -1.2550 H         1 LIG         0.1500
     13 C5          5.5210   -0.4890    0.8350 C.ar      1 LIG        -0.1500
     14 H7          6.5190   -0.3130    1.1550 H         1 LIG         0.1500
     15 C6          4.4750   -0.4160    1.7450 C.ar      1 LIG        -0.1500
     16 H8          4.6650   -0.1830    2.7660 H         1 LIG         0.1500
     17 C7          3.1780   -0.6540    1.3040 C.ar      1 LIG        -0.1500
     18 H9          2.3770   -0.6030    1.9960 H         1 LIG         0.1500
     19 C8          0.2430    0.8080   -0.2030 C.ar      1 LIG         0.4100
     20 N3          1.0530    1.4330   -1.0380 N.ar      1 LIG        -0.6200
     21 C9          0.8680    2.7470   -1.2530 C.ar      1 LIG         0.7710
     22 N4          1.6700    3.3900   -2.0920 N.pl3     1 LIG        -0.9000
     23 H10         1.5960    4.3920   -2.3260 H         1 LIG         0.4000
     24 H11         2.3970    2.8450   -2.5810 H         1 LIG         0.4000
     25 N5         -0.0920    3.4760   -0.6640 N.ar      1 LIG        -0.1250
     26 H12        -0.1420    4.4800   -0.8670 H         1 LIG         0.4570
     27 C10        -0.9860    2.8530    0.1830 C.ar      1 LIG         0.3070
     28 C11        -0.8300    1.5080    0.4060 C.ar      1 LIG        -0.1520
     29 N6         -1.8910    1.1470    1.2580 N.pl3     1 LIG         0.0480
     30 C12        -2.2730   -0.1790    1.7710 C.3       1 LIG         0.2390
     31 H13        -1.3830   -0.7480    1.9980 H         1 LIG         0.0800
     32 H14        -2.9020   -0.0630    2.6440 H         1 LIG         0.0800
     33 C13        -3.0680   -0.8790    0.6700 C.ar      1 LIG         0.2170
     34 N7         -4.1960   -0.2710    0.2160 N.ar      1 LIG        -0.1790
     35 H15        -4.4760    0.6470    0.6200 H         1 LIG         0.4570
     36 C14        -4.9830   -0.7990   -0.7450 C.ar      1 LIG         0.2110
     37 H16        -5.8390   -0.2260   -1.0140 H         1 LIG         0.1500
     38 C15        -4.6390   -2.0200   -1.3070 C.ar      1 LIG        -0.1500
     39 H17        -5.2490   -2.4470   -2.0660 H         1 LIG         0.1500
     40 C16        -3.4990   -2.6840   -0.8740 C.ar      1 LIG        -0.1500
     41 H18        -3.2330   -3.6250   -1.2960 H         1 LIG         0.1500
     42 C17        -2.7180   -2.1090    0.1200 C.ar      1 LIG        -0.1500
     43 H19        -1.8540   -2.6220    0.4620 H         1 LIG         0.1500
     44 C18        -2.6330    2.2770    1.5420 C.2       1 LIG        -0.3020
     45 H20        -3.4710    2.2560    2.1970 H         1 LIG         0.1500
     46 C19        -2.0860    3.3430    0.8820 C.2       1 LIG        -0.1500
     47 H21        -2.4350    4.3460    0.9130 H         1 LIG         0.1500
     48 H22         1.5350   -1.0530   -1.7070 H         1 LIG         0.0800
@<TRIPOS>BOND
  1   1   2  1   
  2   1   3  1   
  3   1  19  1   
  4   3   4  1   
  5   3   8  1   
  6   3  48  1   
  7   4   5  1   
  8   4   6  1   
  9   4   7  1   
 10   8   9  ar  
 11   8  17  ar  
 12   9  10  1   
 13   9  11  ar  
 14  11  12  1   
 15  11  13  ar  
 16  13  14  1   
 17  13  15  ar  
 18  15  16  1   
 19  15  17  ar  
 20  17  18  1   
 21  19  20  ar  
 22  19  28  ar  
 23  20  21  ar  
 24  21  22  1   
 25  21  25  ar  
 26  22  23  1   
 27  22  24  1   
 28  25  26  1   
 29  25  27  ar  
 30  27  28  ar  
 31  27  46  1   
 32  28  29  1   
 33  29  30  1   
 34  29  44  1   
 35  30  31  1   
 36  30  32  1   
 37  30  33  1   
 38  33  34  ar  
 39  33  42  ar  
 40  34  35  1   
 41  34  36  ar  
 42  36  37  1   
 43  36  38  ar  
 44  38  39  1   
 45  38  40  ar  
 46  40  41  1   
 47  40  42  ar  
 48  42  43  1   
 49  44  45  1   
 50  44  46  2   
 51  46  47  1   
@<TRIPOS>SUBSTRUCTURE
  1 ****  19 GROUP 4 **** **** 0

# MOE 2018.01 (io_trps.svl 2018.01)

@<TRIPOS>MOLECULE
CHEMBL4090816
53 54 1 0 0 
SMALL
USER_CHARGES


@<TRIPOS>ATOM
      1 N1          1.4890    0.8190   -0.1250 N.pl3     1 LIG        -0.8690
      2 H1          1.7560    1.3770   -0.9530 H         1 LIG         0.4000
      3 C1          1.8430    1.5340    1.1040 C.3       1 LIG         0.2090
      4 H2          1.0330    2.1960    1.4180 H         1 LIG         0.0800
      5 H3          2.0910    0.8430    1.9120 H         1 LIG         0.0800
      6 C2          3.0860    2.3640    0.7560 C.3       1 LIG        -0.1600
      7 H4          3.4740    2.7880    1.6830 H         1 LIG         0.0800
      8 H5          3.8560    1.7090    0.3440 H         1 LIG         0.0800
      9 C3          2.8060    3.5170   -0.2260 C.3       1 LIG        -0.1600
     10 H6          2.4620    3.1260   -1.1850 H         1 LIG         0.0800
     11 H7          2.0330    4.1700    0.1840 H         1 LIG         0.0800
     12 C4          4.0780    4.3370   -0.4620 C.3       1 LIG        -0.2400
     13 H8          4.8610    3.7050   -0.8840 H         1 LIG         0.0800
     14 H9          4.4310    4.7660    0.4780 H         1 LIG         0.0800
     15 H10         3.8670    5.1490   -1.1600 H         1 LIG         0.0800
     16 C5          1.7730   -0.4810   -0.2630 C.ar      1 LIG         0.4100
     17 C6          1.1320   -1.5190    0.4780 C.ar      1 LIG        -0.1440
     18 C7         -0.0520   -1.2090    1.4010 C.3       1 LIG        -0.0170
     19 H11        -0.2570   -2.0340    2.0850 H         1 LIG         0.0800
     20 H12         0.1610   -0.3270    2.0040 H         1 LIG         0.0800
     21 C8         -1.2710   -0.9560    0.4890 C.3       1 LIG        -0.1600
     22 H13        -1.5520   -1.8880    0.0000 H         1 LIG         0.0800
     23 H14        -1.0030   -0.2130   -0.2620 H         1 LIG         0.0800
     24 C9         -2.4060   -0.4280    1.4020 C.3       1 LIG         0.3430
     25 H15        -2.0260    0.4300    1.9450 H         1 LIG         0.0800
     26 H16        -2.6910   -1.2250    2.0800 H         1 LIG         0.0800
     27 N2         -3.5960   -0.0060    0.6010 N.4       1 LIG        -0.9590
     28 H17        -4.3370    0.2870    1.2290 H         1 LIG         0.4500
     29 C10        -3.2450    1.1520   -0.2920 C.3       1 LIG         0.3430
     30 H18        -2.8670    1.9830    0.2930 H         1 LIG         0.0800
     31 H19        -2.5490    0.8400   -1.0620 H         1 LIG         0.0800
     32 C11        -4.5410    1.6050   -1.0040 C.3       1 LIG         0.1200
     33 H20        -4.3110    2.4250   -1.6870 H         1 LIG         0.0800
     34 H21        -5.2870    1.9430   -0.2820 H         1 LIG         0.0800
     35 O1         -5.0180    0.4870   -1.7500 O.3       1 LIG        -0.5600
     36 C12        -5.3900   -0.6410   -0.9600 C.3       1 LIG         0.1200
     37 H22        -6.1630   -0.3770   -0.2370 H         1 LIG         0.0800
     38 H23        -5.7690   -1.4300   -1.6120 H         1 LIG         0.0800
     39 C13        -4.1070   -1.1350   -0.2490 C.3       1 LIG         0.3430
     40 H24        -3.3860   -1.3810   -1.0190 H         1 LIG         0.0800
     41 H25        -4.3650   -1.9870    0.3680 H         1 LIG         0.0800
     42 C14         1.5940   -2.8000    0.2830 C.ar      1 LIG         0.2180
     43 C15         1.0890   -4.0620    0.9590 C.3       1 LIG        -0.0960
     44 H26         0.0140   -4.1400    0.7870 H         1 LIG         0.0800
     45 H27         1.2940   -3.9820    2.0290 H         1 LIG         0.0800
     46 H28         1.5870   -4.9460    0.5560 H         1 LIG         0.0800
     47 N3          2.6070   -2.9820   -0.6190 N.ar      1 LIG        -0.1790
     48 H29         3.0050   -3.9100   -0.8000 H         1 LIG         0.4570
     49 C16         3.1100   -1.9530   -1.3150 C.ar      1 LIG         0.7710
     50 N4          4.0620   -2.2310   -2.1940 N.pl3     1 LIG        -0.9000
     51 H30         4.4440   -3.1670   -2.3820 H         1 LIG         0.4000
     52 H31         4.4500   -1.4330   -2.7250 H         1 LIG         0.4000
     53 N5          2.7030   -0.7100   -1.1570 N.ar      1 LIG        -0.6200
@<TRIPOS>BOND
  1   1   2  1   
  2   1   3  1   
  3   1  16  1   
  4   3   4  1   
  5   3   5  1   
  6   3   6  1   
  7   6   7  1   
  8   6   8  1   
  9   6   9  1   
 10   9  10  1   
 11   9  11  1   
 12   9  12  1   
 13  12  13  1   
 14  12  14  1   
 15  12  15  1   
 16  16  17  ar  
 17  16  53  ar  
 18  17  18  1   
 19  17  42  ar  
 20  18  19  1   
 21  18  20  1   
 22  18  21  1   
 23  21  22  1   
 24  21  23  1   
 25  21  24  1   
 26  24  25  1   
 27  24  26  1   
 28  24  27  1   
 29  27  28  1   
 30  27  29  1   
 31  27  39  1   
 32  29  30  1   
 33  29  31  1   
 34  29  32  1   
 35  32  33  1   
 36  32  34  1   
 37  32  35  1   
 38  35  36  1   
 39  36  37  1   
 40  36  38  1   
 41  36  39  1   
 42  39  40  1   
 43  39  41  1   
 44  42  43  1   
 45  42  47  ar  
 46  43  44  1   
 47  43  45  1   
 48  43  46  1   
 49  47  48  1   
 50  47  49  ar  
 51  49  50  1   
 52  49  53  ar  
 53  50  51  1   
 54  50  52  1   
@<TRIPOS>SUBSTRUCTURE
  1 ****  21 GROUP 4 **** **** 0

# MOE 2018.01 (io_trps.svl 2018.01)

@<TRIPOS>MOLECULE
CHEMBL4092365
45 47 1 0 0 
SMALL
USER_CHARGES


@<TRIPOS>ATOM
      1 O1          0.2490   -3.0630   -0.5910 O.3       1 LIG        -0.6800
      2 H1          0.3220   -3.8820   -1.0960 H         1 LIG         0.4000
      3 C1          1.3860   -2.9920    0.2780 C.3       1 LIG         0.2000
      4 C2          1.3730   -1.7410    1.2020 C.3       1 LIG         0.2090
      5 H2          2.3940   -1.4520    1.4580 H         1 LIG         0.0800
      6 H3          0.8250   -1.9730    2.1160 H         1 LIG         0.0800
      7 N1          0.6660   -0.6900    0.4550 N.pl3     1 LIG        -0.8690
      8 H4          0.1780   -1.1110   -0.3500 H         1 LIG         0.4000
      9 C3          0.9390    0.6220    0.4860 C.ar      1 LIG         0.4100
     10 N2          1.8720    1.0570    1.3090 N.ar      1 LIG        -0.6200
     11 C4          2.1910    2.3540    1.2830 C.ar      1 LIG         0.7710
     12 N3          3.1340    2.8000    2.1030 N.pl3     1 LIG        -0.9000
     13 H5          3.4570    3.7750    2.1670 H         1 LIG         0.4000
     14 H6          3.5740    2.1020    2.7260 H         1 LIG         0.4000
     15 N4          1.6160    3.2560    0.4700 N.ar      1 LIG        -0.1250
     16 H7          1.9450    4.2240    0.5050 H         1 LIG         0.4570
     17 C5          0.6020    2.8500   -0.3790 C.ar      1 LIG         0.3070
     18 C6          0.2580    1.5250   -0.3590 C.ar      1 LIG        -0.1520
     19 N5         -0.7970    1.3870   -1.2690 N.pl3     1 LIG         0.0480
     20 C7         -1.5780    0.1750   -1.5770 C.3       1 LIG         0.2390
     21 H8         -2.1290    0.3210   -2.4960 H         1 LIG         0.0800
     22 H9         -0.9170   -0.6780   -1.6440 H         1 LIG         0.0800
     23 C8         -2.5610   -0.0180   -0.4230 C.ar      1 LIG         0.2170
     24 N6         -3.4770    0.9620   -0.2150 N.ar      1 LIG        -0.1790
     25 H10        -3.4690    1.7990   -0.8320 H         1 LIG         0.4570
     26 C9         -4.4040    0.9100    0.7650 C.ar      1 LIG         0.2110
     27 H11        -5.0650    1.7420    0.8230 H         1 LIG         0.1500
     28 C10        -4.4360   -0.1890    1.6110 C.ar      1 LIG        -0.1500
     29 H12        -5.1590   -0.2430    2.3880 H         1 LIG         0.1500
     30 C11        -3.5220   -1.2190    1.4390 C.ar      1 LIG        -0.1500
     31 H13        -3.5370   -2.0670    2.0820 H         1 LIG         0.1500
     32 C12        -2.5860   -1.1280    0.4160 C.ar      1 LIG        -0.1500
     33 H14        -1.8870   -1.9170    0.2820 H         1 LIG         0.1500
     34 C13        -1.0560    2.6230   -1.8290 C.2       1 LIG        -0.3020
     35 H15        -1.8030    2.7620   -2.5720 H         1 LIG         0.1500
     36 C14        -0.1970    3.5420   -1.2870 C.2       1 LIG        -0.1500
     37 H16        -0.1510    4.5760   -1.5260 H         1 LIG         0.1500
     38 C15         2.6520   -3.0800   -0.5960 C.3       1 LIG        -0.1600
     39 H17         3.5240   -3.1150    0.0590 H         1 LIG         0.0800
     40 H18         2.6280   -4.0230   -1.1460 H         1 LIG         0.0800
     41 C16         2.8490   -1.9350   -1.6050 C.3       1 LIG        -0.2400
     42 H19         2.9760   -0.9870   -1.0820 H         1 LIG         0.0800
     43 H20         1.9920   -1.8700   -2.2770 H         1 LIG         0.0800
     44 H21         3.7450   -2.1250   -2.1980 H         1 LIG         0.0800
     45 H22         1.3830   -3.8690    0.9290 H         1 LIG         0.0800
@<TRIPOS>BOND
  1   1   2  1   
  2   1   3  1   
  3   3   4  1   
  4   3  38  1   
  5   3  45  1   
  6   4   5  1   
  7   4   6  1   
  8   4   7  1   
  9   7   8  1   
 10   7   9  1   
 11   9  10  ar  
 12   9  18  ar  
 13  10  11  ar  
 14  11  12  1   
 15  11  15  ar  
 16  12  13  1   
 17  12  14  1   
 18  15  16  1   
 19  15  17  ar  
 20  17  18  ar  
 21  17  36  1   
 22  18  19  1   
 23  19  20  1   
 24  19  34  1   
 25  20  21  1   
 26  20  22  1   
 27  20  23  1   
 28  23  24  ar  
 29  23  32  ar  
 30  24  25  1   
 31  24  26  ar  
 32  26  27  1   
 33  26  28  ar  
 34  28  29  1   
 35  28  30  ar  
 36  30  31  1   
 37  30  32  ar  
 38  32  33  1   
 39  34  35  1   
 40  34  36  2   
 41  36  37  1   
 42  38  39  1   
 43  38  40  1   
 44  38  41  1   
 45  41  42  1   
 46  41  43  1   
 47  41  44  1   
@<TRIPOS>SUBSTRUCTURE
  1 ****   9 GROUP 4 **** **** 0

# MOE 2018.01 (io_trps.svl 2018.01)

@<TRIPOS>MOLECULE
CHEMBL1760582
39 42 1 0 0 
SMALL
USER_CHARGES


@<TRIPOS>ATOM
      1 O1          2.1520    3.2080    0.7830 O.2       1 LIG        -0.5700
      2 C1          1.0490    2.7120    0.5790 C.2       1 LIG         0.6900
      3 N1          0.5610    1.5400    1.1130 N.am      1 LIG        -0.4770
      4 C2          1.3600    0.6810    1.9720 C.3       1 LIG         0.2840
      5 H1          2.0340    1.2880    2.5670 H         1 LIG         0.0800
      6 H2          0.7140    0.0650    2.5840 H         1 LIG         0.0800
      7 C3          2.1590   -0.1830    1.0100 C.ar      1 LIG        -0.1440
      8 C4          1.6060   -1.3340    0.4590 C.ar      1 LIG         0.2110
      9 H3          0.6270   -1.6990    0.6610 H         1 LIG         0.1500
     10 N2          2.3280   -2.0710   -0.4090 N.ar      1 LIG        -0.1790
     11 H4          1.9000   -2.9260   -0.8140 H         1 LIG         0.4570
     12 C5          3.5820   -1.7480   -0.7810 C.ar      1 LIG         0.2170
     13 C6          4.2460   -2.6900   -1.7630 C.3       1 LIG        -0.0970
     14 H5          5.2450   -2.3120   -1.9830 H         1 LIG         0.0800
     15 H6          3.6570   -2.7190   -2.6810 H         1 LIG         0.0800
     16 H7          4.3220   -3.6800   -1.3120 H         1 LIG         0.0800
     17 C7          4.1590   -0.6010   -0.2520 C.ar      1 LIG        -0.1500
     18 H8          5.1430   -0.3210   -0.5350 H         1 LIG         0.1500
     19 C8          3.4500    0.1890    0.6450 C.ar      1 LIG        -0.1500
     20 H9          3.8890    1.0770    1.0370 H         1 LIG         0.1500
     21 C9         -0.7130    1.3130    0.5970 C.ar      1 LIG         0.1170
     22 C10        -1.0080    2.3430   -0.2600 C.ar      1 LIG         0.1170
     23 C11        -2.2310    2.3400   -0.9560 C.ar      1 LIG         0.4100
     24 N3         -2.6120    3.3260   -1.8210 N.pl3     1 LIG        -0.9000
     25 H10        -3.6160    3.2510   -2.0370 H         1 LIG         0.4000
     26 H11        -2.3060    4.2690   -1.5540 H         1 LIG         0.4000
     27 N4         -3.1120    1.3590   -0.8170 N.ar      1 LIG        -0.6200
     28 C12        -2.8090    0.3380    0.0490 C.ar      1 LIG         0.2870
     29 N5         -3.7520   -0.7820    0.2000 N.pl3     1 LIG         0.8590
     30 N6         -3.3100   -2.0550    0.4200 N.2       1 LIG        -0.7070
     31 C13        -4.4130   -2.7200    0.5080 C.2       1 LIG         0.1390
     32 H12        -4.4650   -3.7670    0.6760 H         1 LIG         0.1500
     33 C14        -5.4970   -1.8810    0.3560 C.2       1 LIG         0.1390
     34 H13        -6.5160   -2.1720    0.3880 H         1 LIG         0.1500
     35 N7         -5.1040   -0.6690    0.1700 N.2       1 LIG        -0.7070
     36 C15        -1.6240    0.2810    0.7900 C.ar      1 LIG        -0.1500
     37 H14        -1.4320   -0.5100    1.4650 H         1 LIG         0.1500
     38 N8          0.0920    3.2030   -0.2480 N.am      1 LIG        -0.5470
     39 H15         0.2430    4.0540   -0.8030 H         1 LIG         0.3700
@<TRIPOS>BOND
  1   1   2  2   
  2   2   3  am  
  3   2  38  am  
  4   3   4  1   
  5   3  21  1   
  6   4   5  1   
  7   4   6  1   
  8   4   7  1   
  9   7   8  ar  
 10   7  19  ar  
 11   8   9  1   
 12   8  10  ar  
 13  10  11  1   
 14  10  12  ar  
 15  12  13  1   
 16  12  17  ar  
 17  13  14  1   
 18  13  15  1   
 19  13  16  1   
 20  17  18  1   
 21  17  19  ar  
 22  19  20  1   
 23  21  22  ar  
 24  21  36  ar  
 25  22  23  ar  
 26  22  38  1   
 27  23  24  1   
 28  23  27  ar  
 29  24  25  1   
 30  24  26  1   
 31  27  28  ar  
 32  28  29  1   
 33  28  36  ar  
 34  29  30  1   
 35  29  35  1   
 36  30  31  2   
 37  31  32  1   
 38  31  33  1   
 39  33  34  1   
 40  33  35  2   
 41  36  37  1   
 42  38  39  1   
@<TRIPOS>SUBSTRUCTURE
  1 ****  21 GROUP 4 **** **** 0

# MOE 2018.01 (io_trps.svl 2018.01)

@<TRIPOS>MOLECULE
CHEMBL2315154
56 59 1 0 0 
SMALL
USER_CHARGES


@<TRIPOS>ATOM
      1 O1         -0.6920    4.6820   -0.2220 O.2       1 LIG        -0.5700
      2 C1          0.1720    3.8140   -0.1390 C.2       1 LIG         0.6900
      3 N1          0.3130    2.7050   -0.9370 N.am      1 LIG        -0.4770
      4 C2         -0.6490    2.2880   -1.9390 C.3       1 LIG         0.2840
      5 H1         -1.1260    3.1570   -2.3740 H         1 LIG         0.0800
      6 H2         -0.1620    1.6660   -2.6780 H         1 LIG         0.0800
      7 C3         -1.6800    1.4670   -1.1870 C.ar      1 LIG        -0.1440
      8 C4         -1.4890    0.0990   -0.9900 C.ar      1 LIG        -0.1500
      9 H3         -0.6110   -0.3690   -1.3560 H         1 LIG         0.1500
     10 C5         -2.4310   -0.6550   -0.3000 C.ar      1 LIG        -0.1500
     11 H4         -2.2540   -1.6820   -0.1300 H         1 LIG         0.1500
     12 C6         -3.5940   -0.0510    0.1940 C.ar      1 LIG         0.1000
     13 N2         -4.5550   -0.8520    0.8720 N.pl3     1 LIG        -0.8380
     14 C7         -4.9440   -2.1600    0.2730 C.3       1 LIG         0.2090
     15 H5         -5.3110   -2.8180    1.0500 H         1 LIG         0.0800
     16 H6         -4.1310   -2.6070   -0.2790 H         1 LIG         0.0800
     17 C8         -6.1010   -1.8780   -0.7140 C.3       1 LIG         0.1200
     18 H7         -6.4160   -2.8130   -1.1760 H         1 LIG         0.0800
     19 H8         -5.7680   -1.1850   -1.4880 H         1 LIG         0.0800
     20 O2         -7.1860   -1.3230    0.0360 O.3       1 LIG        -0.5600
     21 C9         -6.8520   -0.0450    0.5860 C.3       1 LIG         0.1200
     22 H9         -6.5410    0.6400   -0.2030 H         1 LIG         0.0800
     23 H10        -7.7190    0.3680    1.1010 H         1 LIG         0.0800
     24 C10        -5.7030   -0.2530    1.6040 C.3       1 LIG         0.2090
     25 H11        -5.4250    0.6930    2.0460 H         1 LIG         0.0800
     26 H12        -6.0460   -0.9510    2.3570 H         1 LIG         0.0800
     27 C11        -3.7710    1.3290    0.0240 C.ar      1 LIG        -0.1500
     28 H13        -4.6240    1.8160    0.4080 H         1 LIG         0.1500
     29 C12        -2.8200    2.0750   -0.6630 C.ar      1 LIG        -0.1500
     30 H14        -2.9630    3.1200   -0.7830 H         1 LIG         0.1500
     31 C13         1.4220    2.0010   -0.5230 C.ar      1 LIG         0.4270
     32 N3          1.9220    0.8790   -1.0380 N.ar      1 LIG        -0.6200
     33 C14         3.0100    0.4370   -0.4160 C.ar      1 LIG         0.7200
     34 N4          3.5050   -0.7170   -0.9380 N.pl3     1 LIG        -0.8690
     35 H15         3.0700   -0.9390   -1.8400 H         1 LIG         0.4000
     36 C15         4.8800   -1.1600   -0.7170 C.3       1 LIG         0.2090
     37 H16         5.5130   -0.3610   -0.3250 H         1 LIG         0.0800
     38 H17         5.3060   -1.5330   -1.6490 H         1 LIG         0.0800
     39 C16         4.7630   -2.2950    0.3050 C.3       1 LIG        -0.1600
     40 H18         4.2670   -1.9040    1.1960 H         1 LIG         0.0800
     41 H19         4.1380   -3.0890   -0.1070 H         1 LIG         0.0800
     42 C17         6.1230   -2.8770    0.7220 C.3       1 LIG        -0.1600
     43 H20         6.7580   -2.0770    1.1080 H         1 LIG         0.0800
     44 H21         5.9580   -3.5940    1.5300 H         1 LIG         0.0800
     45 C18         6.8440   -3.5940   -0.4260 C.3       1 LIG        -0.2400
     46 H22         6.2060   -4.3770   -0.8380 H         1 LIG         0.0800
     47 H23         7.7600   -4.0510   -0.0490 H         1 LIG         0.0800
     48 H24         7.1080   -2.8890   -1.2140 H         1 LIG         0.0800
     49 N5          3.6350    0.9990    0.6440 N.ar      1 LIG        -0.6200
     50 C19         3.1130    2.1080    1.1240 C.ar      1 LIG         0.4100
     51 N6          3.7560    2.6440    2.2040 N.pl3     1 LIG        -0.9000
     52 H25         3.1510    3.1410    2.8670 H         1 LIG         0.4000
     53 H26         4.4100    1.9710    2.6270 H         1 LIG         0.4000
     54 C20         1.9720    2.6590    0.5420 C.ar      1 LIG         0.1170
     55 N7          1.1820    3.7950    0.7680 N.am      1 LIG        -0.5470
     56 H27         1.3060    4.5500    1.4510 H         1 LIG         0.3700
@<TRIPOS>BOND
  1   1   2  2   
  2   2   3  am  
  3   2  55  am  
  4   3   4  1   
  5   3  31  1   
  6   4   5  1   
  7   4   6  1   
  8   4   7  1   
  9   7   8  ar  
 10   7  29  ar  
 11   8   9  1   
 12   8  10  ar  
 13  10  11  1   
 14  10  12  ar  
 15  12  13  1   
 16  12  27  ar  
 17  13  14  1   
 18  13  24  1   
 19  14  15  1   
 20  14  16  1   
 21  14  17  1   
 22  17  18  1   
 23  17  19  1   
 24  17  20  1   
 25  20  21  1   
 26  21  22  1   
 27  21  23  1   
 28  21  24  1   
 29  24  25  1   
 30  24  26  1   
 31  27  28  1   
 32  27  29  ar  
 33  29  30  1   
 34  31  32  ar  
 35  31  54  ar  
 36  32  33  ar  
 37  33  34  1   
 38  33  49  ar  
 39  34  35  1   
 40  34  36  1   
 41  36  37  1   
 42  36  38  1   
 43  36  39  1   
 44  39  40  1   
 45  39  41  1   
 46  39  42  1   
 47  42  43  1   
 48  42  44  1   
 49  42  45  1   
 50  45  46  1   
 51  45  47  1   
 52  45  48  1   
 53  49  50  ar  
 54  50  51  1   
 55  50  54  ar  
 56  51  52  1   
 57  51  53  1   
 58  54  55  1   
 59  55  56  1   
@<TRIPOS>SUBSTRUCTURE
  1 ****   8 GROUP 4 **** **** 0

# MOE 2018.01 (io_trps.svl 2018.01)

@<TRIPOS>MOLECULE
CHEMBL1086473
48 51 1 0 0 
SMALL
USER_CHARGES


@<TRIPOS>ATOM
      1 N1         -2.9220    3.2710   -1.6150 N.pl3     1 LIG        -0.9000
      2 H1         -3.8230    3.6980   -1.8790 H         1 LIG         0.4000
      3 H2         -2.0540    3.7870   -1.8720 H         1 LIG         0.4000
      4 C1         -2.7690    2.1090   -0.9760 C.ar      1 LIG         0.4610
      5 N2         -3.8950    1.4690   -0.6560 N.ar      1 LIG        -0.1790
      6 H3         -4.7840    1.9140   -0.9070 H         1 LIG         0.4570
      7 C2         -3.8900    0.2110   -0.0140 C.ar      1 LIG         0.3610
      8 C3         -2.6590   -0.4060    0.3200 C.ar      1 LIG         0.0000
      9 C4         -1.4560    0.3470    0.0420 C.ar      1 LIG        -0.1520
     10 N3         -0.1340    0.1590    0.2970 N.pl3     1 LIG         0.0480
     11 C5          0.4980   -0.8930    1.1110 C.3       1 LIG         0.2390
     12 H4          1.3360   -0.4610    1.6380 H         1 LIG         0.0800
     13 H5         -0.2070   -1.3020    1.8150 H         1 LIG         0.0800
     14 C6          1.0210   -1.9890    0.1890 C.ar      1 LIG        -0.1440
     15 C7          2.2520   -2.5760    0.4850 C.ar      1 LIG        -0.1500
     16 H6          2.8100   -2.2560    1.3280 H         1 LIG         0.1500
     17 C8          2.7640   -3.5900   -0.3190 C.ar      1 LIG        -0.1500
     18 H7          3.7010   -4.0290   -0.0880 H         1 LIG         0.1500
     19 C9          2.0480   -4.0290   -1.4260 C.ar      1 LIG        -0.1500
     20 H8          2.4390   -4.8010   -2.0390 H         1 LIG         0.1500
     21 C10         0.8190   -3.4550   -1.7280 C.ar      1 LIG        -0.1500
     22 H9          0.2730   -3.7900   -2.5730 H         1 LIG         0.1500
     23 C11         0.3060   -2.4410   -0.9250 C.ar      1 LIG        -0.1500
     24 H10        -0.6320   -2.0190   -1.1760 H         1 LIG         0.1500
     25 C12         0.5540    1.2030   -0.2870 C.2       1 LIG         0.0060
     26 C13         2.0660    1.3400   -0.2680 C.3       1 LIG         0.0200
     27 H11         2.5580    0.3690   -0.2240 H         1 LIG         0.0800
     28 H12         2.3790    1.8530   -1.1780 H         1 LIG         0.0800
     29 C14         2.4200    2.1950    0.9630 C.3       1 LIG        -0.1600
     30 H13         1.9930    3.1920    0.8360 H         1 LIG         0.0800
     31 H14         1.9720    1.7540    1.8540 H         1 LIG         0.0800
     32 C15         3.9340    2.3190    1.1980 C.3       1 LIG        -0.1600
     33 H15         4.0950    2.8740    2.1240 H         1 LIG         0.0800
     34 H16         4.3700    1.3260    1.3200 H         1 LIG         0.0800
     35 C16         4.6580    3.0540    0.0620 C.3       1 LIG        -0.2400
     36 H17         4.2000    4.0310   -0.1030 H         1 LIG         0.0800
     37 H18         4.6160    2.4740   -0.8600 H         1 LIG         0.0800
     38 H19         5.7050    3.1980    0.3320 H         1 LIG         0.0800
     39 N4         -0.2570    2.0490   -0.8350 N.2       1 LIG        -0.5650
     40 C17        -1.5060    1.5440   -0.6230 C.ar      1 LIG         0.2270
     41 C18        -2.7150   -1.7080    0.8600 C.ar      1 LIG        -0.1500
     42 H20        -1.8320   -2.2510    1.0660 H         1 LIG         0.1500
     43 C19        -3.9350   -2.3170    1.1100 C.ar      1 LIG        -0.1500
     44 H21        -3.9620   -3.2950    1.5240 H         1 LIG         0.1500
     45 C20        -5.1380   -1.6640    0.8150 C.ar      1 LIG        -0.1500
     46 H22        -6.0600   -2.1490    1.0220 H         1 LIG         0.1500
     47 C21        -5.1230   -0.4020    0.2480 C.ar      1 LIG        -0.1500
     48 H23        -6.0350    0.0830    0.0130 H         1 LIG         0.1500
@<TRIPOS>BOND
  1   1   2  1   
  2   1   3  1   
  3   1   4  1   
  4   4   5  ar  
  5   4  40  ar  
  6   5   6  1   
  7   5   7  ar  
  8   7   8  ar  
  9   7  47  ar  
 10   8   9  ar  
 11   8  41  ar  
 12   9  10  1   
 13   9  40  ar  
 14  10  11  1   
 15  10  25  1   
 16  11  12  1   
 17  11  13  1   
 18  11  14  1   
 19  14  15  ar  
 20  14  23  ar  
 21  15  16  1   
 22  15  17  ar  
 23  17  18  1   
 24  17  19  ar  
 25  19  20  1   
 26  19  21  ar  
 27  21  22  1   
 28  21  23  ar  
 29  23  24  1   
 30  25  26  1   
 31  25  39  2   
 32  26  27  1   
 33  26  28  1   
 34  26  29  1   
 35  29  30  1   
 36  29  31  1   
 37  29  32  1   
 38  32  33  1   
 39  32  34  1   
 40  32  35  1   
 41  35  36  1   
 42  35  37  1   
 43  35  38  1   
 44  39  40  1   
 45  41  42  1   
 46  41  43  ar  
 47  43  44  1   
 48  43  45  ar  
 49  45  46  1   
 50  45  47  ar  
 51  47  48  1   
@<TRIPOS>SUBSTRUCTURE
  1 ****  10 GROUP 4 **** **** 0

# MOE 2018.01 (io_trps.svl 2018.01)

@<TRIPOS>MOLECULE
CHEMBL4075866
48 50 1 0 0 
SMALL
USER_CHARGES


@<TRIPOS>ATOM
      1 O1         -1.3040   -3.1100   -0.1770 O.3       1 LIG        -0.3630
      2 C1          0.0990   -2.9600   -0.4880 C.3       1 LIG         0.1200
      3 H1          0.4970   -3.8950   -0.8850 H         1 LIG         0.0800
      4 H2          0.2620   -2.1570   -1.2060 H         1 LIG         0.0800
      5 C2          0.7560   -2.6360    0.8610 C.3       1 LIG         0.0960
      6 H3          0.8130   -3.5420    1.4480 H         1 LIG         0.0800
      7 H4          0.2010   -1.8580    1.3670 H         1 LIG         0.0800
      8 N1          2.1000   -2.1540    0.5520 N.pl3     1 LIG         0.0480
      9 C3          2.4710   -0.8750    0.1250 C.ar      1 LIG        -0.1520
     10 C4          1.7550    0.3140   -0.1500 C.ar      1 LIG         0.4100
     11 N2          0.4130    0.3760   -0.0360 N.pl3     1 LIG        -0.8690
     12 H5         -0.1240   -0.4710    0.1970 H         1 LIG         0.4000
     13 C5         -0.3980    1.5790   -0.2530 C.3       1 LIG         0.2090
     14 H6          0.2060    2.4880   -0.2690 H         1 LIG         0.0800
     15 H7         -0.9610    1.4960   -1.1840 H         1 LIG         0.0800
     16 C6         -1.3560    1.6140    0.9410 C.3       1 LIG        -0.1600
     17 H8         -1.8960    0.6680    0.9910 H         1 LIG         0.0800
     18 H9         -0.7790    1.7270    1.8600 H         1 LIG         0.0800
     19 C7         -2.3910    2.7470    0.8490 C.3       1 LIG        -0.1600
     20 H10        -2.9680    2.6410   -0.0720 H         1 LIG         0.0800
     21 H11        -3.0810    2.6530    1.6900 H         1 LIG         0.0800
     22 C8         -1.7560    4.1440    0.8940 C.3       1 LIG        -0.2400
     23 H12        -1.1440    4.3170    0.0090 H         1 LIG         0.0800
     24 H13        -1.1400    4.2470    1.7880 H         1 LIG         0.0800
     25 H14        -2.5440    4.8980    0.9210 H         1 LIG         0.0800
     26 N3          2.4050    1.3960   -0.5370 N.ar      1 LIG        -0.6200
     27 C9          3.7330    1.3390   -0.6580 C.ar      1 LIG         0.7710
     28 N4          4.3900    2.4270   -1.0420 N.pl3     1 LIG        -0.9000
     29 H15         5.4090    2.4970   -1.1590 H         1 LIG         0.4000
     30 H16         3.8180    3.2690   -1.2230 H         1 LIG         0.4000
     31 N5          4.4660    0.2410   -0.4170 N.ar      1 LIG        -0.1250
     32 H17         5.4800    0.2910   -0.5360 H         1 LIG         0.4570
     33 C10         3.8320   -0.9160   -0.0140 C.ar      1 LIG         0.3070
     34 C11         4.3190   -2.1830    0.3000 C.2       1 LIG        -0.1500
     35 H18         5.3280   -2.5130    0.2820 H         1 LIG         0.1500
     36 C12         3.2310   -2.9360    0.6470 C.2       1 LIG        -0.3020
     37 H19         3.1780   -3.9530    0.9530 H         1 LIG         0.1500
     38 C13        -2.2540   -2.1370   -0.3850 C.ar      1 LIG         0.0820
     39 C14        -3.2570   -2.0050    0.5710 C.ar      1 LIG        -0.1500
     40 H20        -3.2710   -2.6470    1.4140 H         1 LIG         0.1500
     41 C15        -4.2350   -1.0290    0.4080 C.ar      1 LIG        -0.1500
     42 H21        -5.0020   -0.9200    1.1320 H         1 LIG         0.1500
     43 C16        -4.2120   -0.1980   -0.7110 C.ar      1 LIG        -0.1500
     44 H22        -4.9610    0.5430   -0.8340 H         1 LIG         0.1500
     45 C17        -3.2120   -0.3440   -1.6710 C.ar      1 LIG        -0.1500
     46 H23        -3.2060    0.2840   -2.5260 H         1 LIG         0.1500
     47 C18        -2.2290   -1.3170   -1.5140 C.ar      1 LIG        -0.1500
     48 H24        -1.4840   -1.4370   -2.2550 H         1 LIG         0.1500
@<TRIPOS>BOND
  1   1   2  1   
  2   1  38  1   
  3   2   3  1   
  4   2   4  1   
  5   2   5  1   
  6   5   6  1   
  7   5   7  1   
  8   5   8  1   
  9   8   9  1   
 10   8  36  1   
 11   9  10  ar  
 12   9  33  ar  
 13  10  11  1   
 14  10  26  ar  
 15  11  12  1   
 16  11  13  1   
 17  13  14  1   
 18  13  15  1   
 19  13  16  1   
 20  16  17  1   
 21  16  18  1   
 22  16  19  1   
 23  19  20  1   
 24  19  21  1   
 25  19  22  1   
 26  22  23  1   
 27  22  24  1   
 28  22  25  1   
 29  26  27  ar  
 30  27  28  1   
 31  27  31  ar  
 32  28  29  1   
 33  28  30  1   
 34  31  32  1   
 35  31  33  ar  
 36  33  34  1   
 37  34  35  1   
 38  34  36  2   
 39  36  37  1   
 40  38  39  ar  
 41  38  47  ar  
 42  39  40  1   
 43  39  41  ar  
 44  41  42  1   
 45  41  43  ar  
 46  43  44  1   
 47  43  45  ar  
 48  45  46  1   
 49  45  47  ar  
 50  47  48  1   
@<TRIPOS>SUBSTRUCTURE
  1 ****  11 GROUP 4 **** **** 0

# MOE 2018.01 (io_trps.svl 2018.01)

@<TRIPOS>MOLECULE
CHEMBL4082112
48 51 1 0 0 
SMALL
USER_CHARGES


@<TRIPOS>ATOM
      1 N1          0.6980    0.1600    1.1850 N.pl3     1 LIG        -0.8690
      2 H1          0.0130   -0.5610    1.4480 H         1 LIG         0.4000
      3 C1          1.9840    0.0830    1.9550 C.3       1 LIG         0.3530
      4 H2          2.3420    1.0740    2.2120 H         1 LIG         0.0800
      5 H3          1.8340   -0.5210    2.8410 H         1 LIG         0.0800
      6 C2          3.0240   -0.6030    1.0740 C.ar      1 LIG         0.2170
      7 N2          3.0990   -0.1520   -0.1900 N.ar      1 LIG        -0.1790
      8 H4          2.4280    0.6070   -0.4490 H         1 LIG         0.4570
      9 C3          3.9650   -0.6320   -1.1020 C.ar      1 LIG         0.2110
     10 H5          3.9160   -0.1860   -2.0660 H         1 LIG         0.1500
     11 C4          4.8400   -1.6510   -0.7370 C.ar      1 LIG        -0.1440
     12 C5          5.8320   -2.2230   -1.7310 C.3       1 LIG        -0.0970
     13 H6          5.6510   -3.2950   -1.8220 H         1 LIG         0.0800
     14 H7          6.8410   -2.0450   -1.3530 H         1 LIG         0.0800
     15 H8          5.7080   -1.7430   -2.7030 H         1 LIG         0.0800
     16 C6          4.8000   -2.1480    0.5620 C.ar      1 LIG        -0.1500
     17 H9          5.4610   -2.9260    0.8600 H         1 LIG         0.1500
     18 C7          3.8880   -1.6190    1.4680 C.ar      1 LIG        -0.1500
     19 H10         3.8560   -1.9940    2.4600 H         1 LIG         0.1500
     20 C8          0.2720    1.2760    0.5500 C.ar      1 LIG         0.4100
     21 N3          1.2150    2.0980    0.1220 N.ar      1 LIG        -0.6200
     22 C9          0.8410    3.2620   -0.4480 C.ar      1 LIG         0.7710
     23 N4          1.7740    4.1180   -0.8470 N.pl3     1 LIG        -0.9000
     24 H11         1.5780    5.0390   -1.2690 H         1 LIG         0.4000
     25 H12         2.7600    3.9150   -0.6160 H         1 LIG         0.4000
     26 N5         -0.4340    3.6220   -0.6520 N.ar      1 LIG        -0.1250
     27 H13        -0.6310    4.5290   -1.0900 H         1 LIG         0.4570
     28 C10        -1.4440    2.7690   -0.2610 C.ar      1 LIG         0.3070
     29 C11        -1.0980    1.5800    0.3340 C.ar      1 LIG        -0.1520
     30 N6         -2.3260    0.9390    0.6170 N.pl3     1 LIG         0.0480
     31 C12        -2.5780   -0.3540    1.2850 C.3       1 LIG         0.2390
     32 H14        -1.6670   -0.9320    1.3260 H         1 LIG         0.0800
     33 H15        -2.9940   -0.1640    2.2650 H         1 LIG         0.0800
     34 C13        -3.5720   -1.1250    0.4160 C.ar      1 LIG         0.2180
     35 N7         -4.8110   -1.3540    0.9250 N.ar      1 LIG        -0.1790
     36 H16        -5.0520   -1.0050    1.8760 H         1 LIG         0.4570
     37 C14        -5.7700   -2.0240    0.2490 C.ar      1 LIG         0.2110
     38 H17        -6.7010   -2.1380    0.7540 H         1 LIG         0.1500
     39 C15        -5.4940   -2.5070   -1.0210 C.ar      1 LIG        -0.1500
     40 H18        -6.2400   -3.0360   -1.5630 H         1 LIG         0.1500
     41 C16        -4.2420   -2.3000   -1.5840 C.ar      1 LIG        -0.1500
     42 H19        -4.0240   -2.6680   -2.5580 H         1 LIG         0.1500
     43 C17        -3.2820   -1.6060   -0.8580 C.ar      1 LIG        -0.1500
     44 H20        -2.3240   -1.4450   -1.2870 H         1 LIG         0.1500
     45 C18        -3.3560    1.7660    0.2030 C.2       1 LIG        -0.3020
     46 H21        -4.3790    1.5070    0.3240 H         1 LIG         0.1500
     47 C19        -2.8270    2.8980   -0.3480 C.2       1 LIG        -0.1500
     48 H22        -3.3750    3.7120   -0.7540 H         1 LIG         0.1500
@<TRIPOS>BOND
  1   1   2  1   
  2   1   3  1   
  3   1  20  1   
  4   3   4  1   
  5   3   5  1   
  6   3   6  1   
  7   6   7  ar  
  8   6  18  ar  
  9   7   8  1   
 10   7   9  ar  
 11   9  10  1   
 12   9  11  ar  
 13  11  12  1   
 14  11  16  ar  
 15  12  13  1   
 16  12  14  1   
 17  12  15  1   
 18  16  17  1   
 19  16  18  ar  
 20  18  19  1   
 21  20  21  ar  
 22  20  29  ar  
 23  21  22  ar  
 24  22  23  1   
 25  22  26  ar  
 26  23  24  1   
 27  23  25  1   
 28  26  27  1   
 29  26  28  ar  
 30  28  29  ar  
 31  28  47  1   
 32  29  30  1   
 33  30  31  1   
 34  30  45  1   
 35  31  32  1   
 36  31  33  1   
 37  31  34  1   
 38  34  35  ar  
 39  34  43  ar  
 40  35  36  1   
 41  35  37  ar  
 42  37  38  1   
 43  37  39  ar  
 44  39  40  1   
 45  39  41  ar  
 46  41  42  1   
 47  41  43  ar  
 48  43  44  1   
 49  45  46  1   
 50  45  47  2   
 51  47  48  1   
@<TRIPOS>SUBSTRUCTURE
  1 ****  20 GROUP 4 **** **** 0

# MOE 2018.01 (io_trps.svl 2018.01)

@<TRIPOS>MOLECULE
CHEMBL2315163
66 68 1 0 0 
SMALL
USER_CHARGES


@<TRIPOS>ATOM
      1 O1         -1.2200    4.5720   -0.2300 O.2       1 LIG        -0.5700
      2 C1         -2.1370    3.7620   -0.1150 C.2       1 LIG         0.6900
      3 N1         -2.2150    2.7570    0.8190 N.am      1 LIG        -0.4770
      4 C2         -1.2410    2.5140    1.8660 C.3       1 LIG         0.2840
      5 H1         -0.9270    3.4590    2.2930 H         1 LIG         0.0800
      6 H2         -1.6530    1.8400    2.6060 H         1 LIG         0.0800
      7 C3         -0.0790    1.8510    1.1500 C.ar      1 LIG        -0.1440
      8 C4          0.9120    2.6150    0.5710 C.ar      1 LIG         0.2110
      9 H3          0.9520    3.6780    0.5890 H         1 LIG         0.1500
     10 N2          1.9240    2.0040   -0.1110 N.ar      1 LIG        -0.1790
     11 H4          2.6230    2.5590   -0.6210 H         1 LIG         0.4570
     12 C5          2.0120    0.6730   -0.2210 C.ar      1 LIG         0.4610
     13 N3          3.0870    0.2190   -0.9220 N.pl3     1 LIG        -0.8380
     14 C6          4.4810    0.6560   -0.6590 C.3       1 LIG         0.2090
     15 H5          5.0830    0.4890   -1.5450 H         1 LIG         0.0800
     16 H6          4.5140    1.6900   -0.3400 H         1 LIG         0.0800
     17 C7          4.9790   -0.2420    0.4930 C.3       1 LIG        -0.1600
     18 H7          4.8840   -1.3000    0.2480 H         1 LIG         0.0800
     19 H8          4.3740   -0.0400    1.3780 H         1 LIG         0.0800
     20 C8          6.4400    0.1330    0.8140 C.3       1 LIG         0.3430
     21 H9          6.6780   -0.2130    1.8150 H         1 LIG         0.0800
     22 H10         6.5480    1.2090    0.7280 H         1 LIG         0.0800
     23 N4          7.3030   -0.5620   -0.1730 N.4       1 LIG        -0.9590
     24 H11         6.8670   -0.6220   -1.0880 H         1 LIG         0.4500
     25 C9          7.6200   -1.9230    0.3450 C.3       1 LIG         0.2630
     26 H12         8.0930   -1.8260    1.3150 H         1 LIG         0.0800
     27 H13         8.2920   -2.4070   -0.3560 H         1 LIG         0.0800
     28 H14         6.6980   -2.4870    0.4270 H         1 LIG         0.0800
     29 C10         8.5890    0.1770   -0.2560 C.3       1 LIG         0.2630
     30 H15         9.0340    0.2160    0.7320 H         1 LIG         0.0800
     31 H16         8.3890    1.1770   -0.6240 H         1 LIG         0.0800
     32 H17         9.2420   -0.3500   -0.9440 H         1 LIG         0.0800
     33 C11         2.9060   -0.9800   -1.7850 C.3       1 LIG         0.1290
     34 H18         3.6060   -0.9200   -2.6080 H         1 LIG         0.0800
     35 H19         1.8930   -0.9790   -2.1710 H         1 LIG         0.0800
     36 H20         3.0850   -1.8660   -1.1870 H         1 LIG         0.0800
     37 C12         1.0030   -0.1410    0.3410 C.ar      1 LIG        -0.1500
     38 H21         1.0600   -1.1930    0.2340 H         1 LIG         0.1500
     39 C13        -0.0350    0.4460    1.0240 C.ar      1 LIG        -0.1500
     40 H22        -0.8080   -0.1510    1.4470 H         1 LIG         0.1500
     41 C14        -3.3430    2.0090    0.5640 C.ar      1 LIG         0.4270
     42 N5         -3.7580    0.9210    1.2050 N.ar      1 LIG        -0.6200
     43 C15        -4.8910    0.4130    0.7240 C.ar      1 LIG         0.7200
     44 N6         -5.3240   -0.6930    1.3870 N.pl3     1 LIG        -0.8690
     45 H23        -4.5980   -1.0660    2.0060 H         1 LIG         0.4000
     46 C16        -6.2270   -1.6680    0.7720 C.3       1 LIG         0.2090
     47 H24        -6.7230   -2.2480    1.5510 H         1 LIG         0.0800
     48 H25        -6.9850   -1.1840    0.1520 H         1 LIG         0.0800
     49 C17        -5.3360   -2.5800   -0.0830 C.3       1 LIG        -0.1600
     50 H26        -4.8100   -1.9660   -0.8150 H         1 LIG         0.0800
     51 H27        -4.5950   -3.0640    0.5540 H         1 LIG         0.0800
     52 C18        -6.1320   -3.6520   -0.8460 C.3       1 LIG        -0.1600
     53 H28        -6.8940   -3.1710   -1.4620 H         1 LIG         0.0800
     54 H29        -5.4470   -4.1810   -1.5130 H         1 LIG         0.0800
     55 C19        -6.7980   -4.6780    0.0800 C.3       1 LIG        -0.2400
     56 H30        -7.5610   -4.2020    0.6960 H         1 LIG         0.0800
     57 H31        -6.0490   -5.1430    0.7240 H         1 LIG         0.0800
     58 H32        -7.2730   -5.4540   -0.5210 H         1 LIG         0.0800
     59 N7         -5.6170    0.8780   -0.3170 N.ar      1 LIG        -0.6200
     60 C20        -5.1700    1.9530   -0.9300 C.ar      1 LIG         0.4100
     61 N8         -5.9300    2.3970   -1.9730 N.pl3     1 LIG        -0.9000
     62 H33        -6.8580    1.9520   -1.9830 H         1 LIG         0.4000
     63 H34        -5.9370    3.4140   -2.1160 H         1 LIG         0.4000
     64 C21        -3.9930    2.5640   -0.5030 C.ar      1 LIG         0.1170
     65 N9         -3.2270    3.6650   -0.9160 N.am      1 LIG        -0.5470
     66 H35        -3.3770    4.2900   -1.7180 H         1 LIG         0.3700
@<TRIPOS>BOND
  1   1   2  2   
  2   2   3  am  
  3   2  65  am  
  4   3   4  1   
  5   3  41  1   
  6   4   5  1   
  7   4   6  1   
  8   4   7  1   
  9   7   8  ar  
 10   7  39  ar  
 11   8   9  1   
 12   8  10  ar  
 13  10  11  1   
 14  10  12  ar  
 15  12  13  1   
 16  12  37  ar  
 17  13  14  1   
 18  13  33  1   
 19  14  15  1   
 20  14  16  1   
 21  14  17  1   
 22  17  18  1   
 23  17  19  1   
 24  17  20  1   
 25  20  21  1   
 26  20  22  1   
 27  20  23  1   
 28  23  24  1   
 29  23  25  1   
 30  23  29  1   
 31  25  26  1   
 32  25  27  1   
 33  25  28  1   
 34  29  30  1   
 35  29  31  1   
 36  29  32  1   
 37  33  34  1   
 38  33  35  1   
 39  33  36  1   
 40  37  38  1   
 41  37  39  ar  
 42  39  40  1   
 43  41  42  ar  
 44  41  64  ar  
 45  42  43  ar  
 46  43  44  1   
 47  43  59  ar  
 48  44  45  1   
 49  44  46  1   
 50  46  47  1   
 51  46  48  1   
 52  46  49  1   
 53  49  50  1   
 54  49  51  1   
 55  49  52  1   
 56  52  53  1   
 57  52  54  1   
 58  52  55  1   
 59  55  56  1   
 60  55  57  1   
 61  55  58  1   
 62  59  60  ar  
 63  60  61  1   
 64  60  64  ar  
 65  61  62  1   
 66  61  63  1   
 67  64  65  1   
 68  65  66  1   
@<TRIPOS>SUBSTRUCTURE
  1 ****  39 GROUP 4 **** **** 0

# MOE 2018.01 (io_trps.svl 2018.01)

@<TRIPOS>MOLECULE
CHEMBL4646933
48 50 1 0 0 
SMALL
USER_CHARGES


@<TRIPOS>ATOM
      1 O1         -6.1150    0.5770   -1.0730 O.3       1 LIG        -0.5320
      2 H1         -6.7430   -0.1590   -0.9420 H         1 LIG         0.4500
      3 C1         -4.8270    0.2980   -0.7510 C.ar      1 LIG         0.0820
      4 C2         -4.4710   -0.9490   -0.2760 C.ar      1 LIG        -0.1500
      5 H2         -5.2000   -1.7070   -0.1560 H         1 LIG         0.1500
      6 C3         -3.1250   -1.1740    0.0390 C.ar      1 LIG         0.3610
      7 N1         -2.7720   -2.4510    0.5250 N.ar      1 LIG        -0.1790
      8 H3         -3.4870   -3.1770    0.6380 H         1 LIG         0.4570
      9 C4         -1.5210   -2.7660    0.8540 C.ar      1 LIG         0.4610
     10 N2         -1.3330   -4.0100    1.3000 N.pl3     1 LIG        -0.9000
     11 H4         -2.0650   -4.7280    1.4090 H         1 LIG         0.4000
     12 H5         -0.3600   -4.2750    1.5610 H         1 LIG         0.4000
     13 C5         -0.4850   -1.7960    0.7160 C.ar      1 LIG         0.2270
     14 N3          0.8390   -1.9470    0.9920 N.2       1 LIG        -0.5650
     15 C6          1.3840   -0.8110    0.7080 C.2       1 LIG         0.0060
     16 C7          2.8750   -0.5290    0.8490 C.3       1 LIG         0.0200
     17 H6          3.1150    0.5320    0.8690 H         1 LIG         0.0800
     18 H7          3.2160   -0.9740    1.7850 H         1 LIG         0.0800
     19 C8          3.6000   -1.2210   -0.3190 C.3       1 LIG        -0.1600
     20 H8          4.6740   -1.1710   -0.1290 H         1 LIG         0.0800
     21 H9          3.3160   -2.2760   -0.3390 H         1 LIG         0.0800
     22 C9          3.3140   -0.5900   -1.6920 C.3       1 LIG        -0.1600
     23 H10         2.2500   -0.6680   -1.9220 H         1 LIG         0.0800
     24 H11         3.6050    0.4620   -1.6810 H         1 LIG         0.0800
     25 C10         4.1060   -1.3140   -2.7850 C.3       1 LIG        -0.2400
     26 H12         3.8220   -2.3660   -2.8180 H         1 LIG         0.0800
     27 H13         5.1760   -1.2370   -2.5870 H         1 LIG         0.0800
     28 H14         3.8930   -0.8600   -3.7540 H         1 LIG         0.0800
     29 N4          0.4400    0.0970    0.2550 N.pl3     1 LIG         0.0480
     30 C11         0.7800    1.4840   -0.1210 C.3       1 LIG         0.0960
     31 H15         1.7600    1.4780   -0.5750 H         1 LIG         0.0800
     32 H16         0.0750    1.8980   -0.8160 H         1 LIG         0.0800
     33 C12         0.8530    2.3340    1.1780 C.3       1 LIG        -0.0800
     34 H17         1.4520    1.8450    1.9500 H         1 LIG         0.0800
     35 C13         1.5180    3.6720    0.8260 C.3       1 LIG        -0.2400
     36 H18         0.9400    4.2000    0.0650 H         1 LIG         0.0800
     37 H19         2.5290    3.5040    0.4530 H         1 LIG         0.0800
     38 H20         1.5810    4.2990    1.7170 H         1 LIG         0.0800
     39 C14        -0.5490    2.6070    1.7480 C.3       1 LIG        -0.2400
     40 H21        -1.1570    3.1610    1.0320 H         1 LIG         0.0800
     41 H22        -0.4610    3.2060    2.6560 H         1 LIG         0.0800
     42 H23        -1.0460    1.6730    2.0120 H         1 LIG         0.0800
     43 C15        -0.7710   -0.5370    0.2490 C.ar      1 LIG        -0.1520
     44 C16        -2.1270   -0.1720   -0.1130 C.ar      1 LIG         0.0000
     45 C17        -2.5520    1.0850   -0.6020 C.ar      1 LIG        -0.1500
     46 H24        -1.8720    1.8770   -0.7370 H         1 LIG         0.1500
     47 C18        -3.8810    1.3140   -0.9150 C.ar      1 LIG        -0.1500
     48 H25        -4.1950    2.2590   -1.2810 H         1 LIG         0.1500
@<TRIPOS>BOND
  1   1   2  1   
  2   1   3  1   
  3   3   4  ar  
  4   3  47  ar  
  5   4   5  1   
  6   4   6  ar  
  7   6   7  ar  
  8   6  44  ar  
  9   7   8  1   
 10   7   9  ar  
 11   9  10  1   
 12   9  13  ar  
 13  10  11  1   
 14  10  12  1   
 15  13  14  1   
 16  13  43  ar  
 17  14  15  2   
 18  15  16  1   
 19  15  29  1   
 20  16  17  1   
 21  16  18  1   
 22  16  19  1   
 23  19  20  1   
 24  19  21  1   
 25  19  22  1   
 26  22  23  1   
 27  22  24  1   
 28  22  25  1   
 29  25  26  1   
 30  25  27  1   
 31  25  28  1   
 32  29  30  1   
 33  29  43  1   
 34  30  31  1   
 35  30  32  1   
 36  30  33  1   
 37  33  34  1   
 38  33  35  1   
 39  33  39  1   
 40  35  36  1   
 41  35  37  1   
 42  35  38  1   
 43  39  40  1   
 44  39  41  1   
 45  39  42  1   
 46  43  44  ar  
 47  44  45  ar  
 48  45  46  1   
 49  45  47  ar  
 50  47  48  1   
@<TRIPOS>SUBSTRUCTURE
  1 ****  43 GROUP 4 **** **** 0

# MOE 2018.01 (io_trps.svl 2018.01)

@<TRIPOS>MOLECULE
CHEMBL3827413
57 60 1 0 0 
SMALL
USER_CHARGES


@<TRIPOS>ATOM
      1 P1          6.5190    1.5650    0.2690 P.3       1 LIG         1.1000
      2 O1          5.0900    1.7690    0.8570 O.co2     1 LIG        -1.0330
      3 O2          7.6510    2.0930    1.1650 O.co2     1 LIG        -1.0330
      4 O3          6.6100    1.9630   -1.2180 O.co2     1 LIG        -1.0330
      5 C1          6.8140   -0.2160    0.2410 C.3       1 LIG        -0.1600
      6 H1          7.8830   -0.3580    0.2450 H         1 LIG         0.0800
      7 H2          6.4280   -0.6680    1.1400 H         1 LIG         0.0800
      8 C2          6.3370   -1.1210   -0.9520 C.3       1 LIG        -0.0160
      9 H3          6.6090   -0.6420   -1.8950 H         1 LIG         0.0800
     10 H4          6.8040   -2.1030   -0.8870 H         1 LIG         0.0800
     11 C3          4.8310   -1.2400   -0.8210 C.ar      1 LIG        -0.1440
     12 C4          4.1420   -0.0710   -1.0120 C.ar      1 LIG        -0.1500
     13 H5          4.6030    0.7710   -1.4620 H         1 LIG         0.1500
     14 C5          2.9340    0.0710   -0.3690 C.ar      1 LIG         0.3610
     15 N1          2.6750    1.3290    0.1250 N.ar      1 LIG        -0.1790
     16 H6          3.5580    1.9110    0.2860 H         1 LIG         0.4570
     17 C6          1.5460    1.6150    0.7390 C.ar      1 LIG         0.4610
     18 N2          1.4780    2.8420    1.2370 N.pl3     1 LIG        -0.9000
     19 H7          2.3020    3.4740    1.2200 H         1 LIG         0.4000
     20 H8          0.6220    3.1260    1.7460 H         1 LIG         0.4000
     21 C7          0.5040    0.5990    0.8660 C.ar      1 LIG         0.3100
     22 N3         -0.7290    0.9440    1.3210 N.ar      1 LIG        -0.6200
     23 C8         -1.6580    0.0160    1.4520 C.ar      1 LIG         0.1600
     24 H9         -2.6170    0.3140    1.7990 H         1 LIG         0.1500
     25 C9         -1.4170   -1.3340    1.1420 C.ar      1 LIG        -0.1440
     26 C10        -2.5210   -2.3630    1.3130 C.3       1 LIG        -0.0160
     27 H10        -2.0820   -3.3450    1.4940 H         1 LIG         0.0800
     28 H11        -3.1490   -2.1080    2.1680 H         1 LIG         0.0800
     29 C11        -3.3550   -2.4110    0.0160 C.3       1 LIG        -0.0160
     30 H12        -4.0460   -3.2530    0.0670 H         1 LIG         0.0800
     31 H13        -2.7050   -2.5670   -0.8440 H         1 LIG         0.0800
     32 C12        -4.1680   -1.1240   -0.0840 C.ar      1 LIG        -0.1440
     33 C13        -3.8790   -0.1100   -1.0140 C.ar      1 LIG        -0.1440
     34 C14        -2.7450   -0.2340   -2.0170 C.3       1 LIG        -0.0960
     35 H14        -2.6690    0.6830   -2.6010 H         1 LIG         0.0800
     36 H15        -2.9660   -1.0720   -2.6790 H         1 LIG         0.0800
     37 H16        -1.8140   -0.3970   -1.4770 H         1 LIG         0.0800
     38 C15        -4.6540    1.0500   -1.0330 C.ar      1 LIG        -0.1500
     39 H17        -4.4410    1.8170   -1.7290 H         1 LIG         0.1500
     40 C16        -5.7120    1.1980   -0.1370 C.ar      1 LIG         0.0820
     41 O4         -6.5050    2.3250   -0.1130 O.3       1 LIG        -0.3630
     42 C17        -6.3420    3.4700   -0.9790 C.3       1 LIG         0.0400
     43 H18        -7.1150    4.1950   -0.7230 H         1 LIG         0.0800
     44 H19        -6.4570    3.1390   -2.0120 H         1 LIG         0.0800
     45 H20        -5.3510    3.8920   -0.8070 H         1 LIG         0.0800
     46 C18        -6.0110    0.1960    0.7750 C.ar      1 LIG        -0.1500
     47 H21        -6.8220    0.3200    1.4450 H         1 LIG         0.1500
     48 C19        -5.2420   -0.9610    0.7970 C.ar      1 LIG        -0.1500
     49 H22        -5.4780   -1.7240    1.4920 H         1 LIG         0.1500
     50 C20        -0.1710   -1.7140    0.6740 C.ar      1 LIG        -0.1500
     51 H23         0.0280   -2.7240    0.4250 H         1 LIG         0.1500
     52 C21         0.8210   -0.7350    0.5280 C.ar      1 LIG         0.0000
     53 C22         2.1570   -1.0160    0.0380 C.ar      1 LIG         0.0000
     54 C23         2.7950   -2.2750    0.0210 C.ar      1 LIG        -0.1500
     55 H24         2.2800   -3.1400    0.3490 H         1 LIG         0.1500
     56 C24         4.1410   -2.3700   -0.3460 C.ar      1 LIG        -0.1500
     57 H25         4.6580   -3.2910   -0.2430 H         1 LIG         0.1500
@<TRIPOS>BOND
  1   1   2  ar  
  2   1   3  ar  
  3   1   4  ar  
  4   1   5  1   
  5   5   6  1   
  6   5   7  1   
  7   5   8  1   
  8   8   9  1   
  9   8  10  1   
 10   8  11  1   
 11  11  12  ar  
 12  11  56  ar  
 13  12  13  1   
 14  12  14  ar  
 15  14  15  ar  
 16  14  53  ar  
 17  15  16  1   
 18  15  17  ar  
 19  17  18  1   
 20  17  21  ar  
 21  18  19  1   
 22  18  20  1   
 23  21  22  ar  
 24  21  52  ar  
 25  22  23  ar  
 26  23  24  1   
 27  23  25  ar  
 28  25  26  1   
 29  25  50  ar  
 30  26  27  1   
 31  26  28  1   
 32  26  29  1   
 33  29  30  1   
 34  29  31  1   
 35  29  32  1   
 36  32  33  ar  
 37  32  48  ar  
 38  33  34  1   
 39  33  38  ar  
 40  34  35  1   
 41  34  36  1   
 42  34  37  1   
 43  38  39  1   
 44  38  40  ar  
 45  40  41  1   
 46  40  46  ar  
 47  41  42  1   
 48  42  43  1   
 49  42  44  1   
 50  42  45  1   
 51  46  47  1   
 52  46  48  ar  
 53  48  49  1   
 54  50  51  1   
 55  50  52  ar  
 56  52  53  ar  
 57  53  54  ar  
 58  54  55  1   
 59  54  56  ar  
 60  56  57  1   
@<TRIPOS>SUBSTRUCTURE
  1 ****  21 GROUP 4 **** **** 0

# MOE 2018.01 (io_trps.svl 2018.01)

@<TRIPOS>MOLECULE
CHEMBL1086474
51 54 1 0 0 
SMALL
USER_CHARGES


@<TRIPOS>ATOM
      1 N1         -3.3560    1.5490   -2.4840 N.pl3     1 LIG        -0.9000
      2 H1         -4.3420    1.6110   -2.7810 H         1 LIG         0.4000
      3 H2         -2.6860    2.2310   -2.8990 H         1 LIG         0.4000
      4 C1         -2.8580    0.6650   -1.6170 C.ar      1 LIG         0.4610
      5 N2         -3.7340   -0.1950   -1.0950 N.ar      1 LIG        -0.1790
      6 H3         -4.7140   -0.1110   -1.3850 H         1 LIG         0.4570
      7 C2         -3.3470   -1.2090   -0.1920 C.ar      1 LIG         0.3610
      8 C3         -1.9890   -1.3310    0.1950 C.ar      1 LIG         0.0000
      9 C4         -1.0740   -0.3320   -0.3160 C.ar      1 LIG        -0.1520
     10 N3          0.2390   -0.0440   -0.1070 N.pl3     1 LIG         0.0480
     11 C5          1.1640   -0.6590    0.8600 C.3       1 LIG         0.2390
     12 H4          1.8220    0.1030    1.2440 H         1 LIG         0.0800
     13 H5          0.6210   -1.1100    1.6730 H         1 LIG         0.0800
     14 C6          2.0080   -1.7030    0.1400 C.ar      1 LIG        -0.1440
     15 C7          1.4580   -2.6170   -0.7640 C.ar      1 LIG        -0.1500
     16 H6          0.4240   -2.6000   -0.9920 H         1 LIG         0.1500
     17 C8          2.2640   -3.5650   -1.3860 C.ar      1 LIG        -0.1500
     18 H7          1.8410   -4.2540   -2.0730 H         1 LIG         0.1500
     19 C9          3.6260   -3.6120   -1.1120 C.ar      1 LIG        -0.1500
     20 H8          4.2400   -4.3350   -1.5870 H         1 LIG         0.1500
     21 C10         4.1820   -2.7090   -0.2130 C.ar      1 LIG        -0.1500
     22 H9          5.2210   -2.7440   -0.0030 H         1 LIG         0.1500
     23 C11         3.3760   -1.7610    0.4100 C.ar      1 LIG        -0.1500
     24 H10         3.8160   -1.0820    1.0960 H         1 LIG         0.1500
     25 C12         0.5720    1.0040   -0.9430 C.2       1 LIG         0.0060
     26 C13         1.9640    1.6070   -1.0570 C.3       1 LIG         0.0200
     27 H11         2.7220    0.8250   -1.0130 H         1 LIG         0.0800
     28 H12         2.0450    2.1000   -2.0270 H         1 LIG         0.0800
     29 C14         2.2080    2.6480    0.0590 C.3       1 LIG        -0.1600
     30 H13         2.2640    2.1650    1.0290 H         1 LIG         0.0800
     31 H14         3.1960    3.0720   -0.1280 H         1 LIG         0.0800
     32 C15         1.2100    3.8240    0.1080 C.3       1 LIG        -0.1600
     33 H15         1.7470    4.7190    0.4290 H         1 LIG         0.0800
     34 H16         0.8420    4.0190   -0.9010 H         1 LIG         0.0800
     35 C16         0.0040    3.6360    1.0480 C.3       1 LIG        -0.1600
     36 H17        -0.6810    4.4710    0.8870 H         1 LIG         0.0800
     37 H18        -0.5320    2.7220    0.8000 H         1 LIG         0.0800
     38 C17         0.3860    3.6140    2.5350 C.3       1 LIG        -0.2400
     39 H19         0.9600    4.5080    2.7860 H         1 LIG         0.0800
     40 H20         0.9750    2.7290    2.7720 H         1 LIG         0.0800
     41 H21        -0.5200    3.6000    3.1410 H         1 LIG         0.0800
     42 N4         -0.4560    1.4050   -1.6210 N.2       1 LIG        -0.5650
     43 C18        -1.4860    0.6060   -1.2250 C.ar      1 LIG         0.2270
     44 C19        -1.6490   -2.4290    1.0130 C.ar      1 LIG        -0.1500
     45 H22        -0.6450   -2.6200    1.2800 H         1 LIG         0.1500
     46 C20        -2.6250   -3.3020    1.4670 C.ar      1 LIG        -0.1500
     47 H23        -2.3540   -4.1190    2.0890 H         1 LIG         0.1500
     48 C21        -3.9670   -3.1280    1.1090 C.ar      1 LIG        -0.1500
     49 H24        -4.6980   -3.8070    1.4750 H         1 LIG         0.1500
     50 C22        -4.3340   -2.0870    0.2760 C.ar      1 LIG        -0.1500
     51 H25        -5.3490   -1.9670   -0.0040 H         1 LIG         0.1500
@<TRIPOS>BOND
  1   1   2  1   
  2   1   3  1   
  3   1   4  1   
  4   4   5  ar  
  5   4  43  ar  
  6   5   6  1   
  7   5   7  ar  
  8   7   8  ar  
  9   7  50  ar  
 10   8   9  ar  
 11   8  44  ar  
 12   9  10  1   
 13   9  43  ar  
 14  10  11  1   
 15  10  25  1   
 16  11  12  1   
 17  11  13  1   
 18  11  14  1   
 19  14  15  ar  
 20  14  23  ar  
 21  15  16  1   
 22  15  17  ar  
 23  17  18  1   
 24  17  19  ar  
 25  19  20  1   
 26  19  21  ar  
 27  21  22  1   
 28  21  23  ar  
 29  23  24  1   
 30  25  26  1   
 31  25  42  2   
 32  26  27  1   
 33  26  28  1   
 34  26  29  1   
 35  29  30  1   
 36  29  31  1   
 37  29  32  1   
 38  32  33  1   
 39  32  34  1   
 40  32  35  1   
 41  35  36  1   
 42  35  37  1   
 43  35  38  1   
 44  38  39  1   
 45  38  40  1   
 46  38  41  1   
 47  42  43  1   
 48  44  45  1   
 49  44  46  ar  
 50  46  47  1   
 51  46  48  ar  
 52  48  49  1   
 53  48  50  ar  
 54  50  51  1   
@<TRIPOS>SUBSTRUCTURE
  1 ****  10 GROUP 4 **** **** 0

# MOE 2018.01 (io_trps.svl 2018.01)

@<TRIPOS>MOLECULE
CHEMBL4096097
44 47 1 0 0 
SMALL
USER_CHARGES


@<TRIPOS>ATOM
      1 O1          0.8460   -0.1060   -0.5730 O.3       1 LIG        -0.3630
      2 C1          1.4690   -1.3810   -0.9010 C.3       1 LIG         0.3000
      3 H1          1.0140   -2.1740   -0.3200 H         1 LIG         0.0800
      4 H2          1.4240   -1.5480   -1.9710 H         1 LIG         0.0800
      5 C2          2.9240   -1.2400   -0.4870 C.2       1 LIG         0.1940
      6 S1          4.1110   -2.4530   -0.6400 S.3       1 LIG        -0.0800
      7 C3          5.3170   -1.4340    0.0450 C.2       1 LIG        -0.1400
      8 C4          6.7360   -1.9310    0.2220 C.3       1 LIG        -0.0600
      9 H3          7.3320   -1.1580    0.7100 H         1 LIG         0.0800
     10 H4          7.1460   -2.1610   -0.7630 H         1 LIG         0.0800
     11 H5          6.7110   -2.8310    0.8380 H         1 LIG         0.0800
     12 C5          4.7950   -0.2220    0.3610 C.2       1 LIG         0.1830
     13 H6          5.2840    0.6150    0.7960 H         1 LIG         0.1500
     14 N1          3.4530   -0.1450    0.0510 N.pl3     1 LIG        -0.1170
     15 H7          2.8590    0.7000    0.2150 H         1 LIG         0.4500
     16 C6          0.3610    1.0890   -0.2470 C.ar      1 LIG         0.3920
     17 N2          1.2300    1.9150    0.2880 N.ar      1 LIG        -0.6200
     18 C7          0.7930    3.1650    0.6190 C.ar      1 LIG         0.7710
     19 N3          1.6380    4.0230    1.1670 N.pl3     1 LIG        -0.9000
     20 H8          1.3910    4.9860    1.4470 H         1 LIG         0.4000
     21 H9          2.6110    3.7260    1.3390 H         1 LIG         0.4000
     22 N4         -0.4600    3.5960    0.4230 N.ar      1 LIG        -0.1250
     23 H10        -0.7010    4.5580    0.6920 H         1 LIG         0.4570
     24 C8         -1.3890    2.7450   -0.1310 C.ar      1 LIG         0.3070
     25 C9         -0.9790    1.4770   -0.4640 C.ar      1 LIG        -0.1520
     26 N5         -2.1190    0.8450   -0.9940 N.pl3     1 LIG         0.0480
     27 C10        -2.2700   -0.5290   -1.4930 C.3       1 LIG         0.2390
     28 H11        -2.8060   -0.5040   -2.4330 H         1 LIG         0.0800
     29 H12        -1.3010   -0.9950   -1.5890 H         1 LIG         0.0800
     30 C11        -3.0780   -1.2720   -0.4320 C.ar      1 LIG         0.2180
     31 N6         -4.3520   -1.6290   -0.7430 N.ar      1 LIG        -0.1790
     32 H13        -4.7400   -1.3940   -1.6800 H         1 LIG         0.4570
     33 C12        -5.1610   -2.2860    0.1160 C.ar      1 LIG         0.2110
     34 H14        -6.1380   -2.5110   -0.2440 H         1 LIG         0.1500
     35 C13        -4.6860   -2.6190    1.3760 C.ar      1 LIG        -0.1500
     36 H15        -5.3130   -3.1360    2.0610 H         1 LIG         0.1500
     37 C14        -3.3910   -2.2760    1.7410 C.ar      1 LIG        -0.1500
     38 H16        -3.0220   -2.5290    2.7070 H         1 LIG         0.1500
     39 C15        -2.5890   -1.6010    0.8300 C.ar      1 LIG        -0.1500
     40 H17        -1.6000   -1.3350    1.1070 H         1 LIG         0.1500
     41 C16        -3.1680    1.7430   -0.9730 C.2       1 LIG        -0.3020
     42 H18        -4.1350    1.4930   -1.3360 H         1 LIG         0.1500
     43 C17        -2.7340    2.9250   -0.4400 C.2       1 LIG        -0.1500
     44 H19        -3.3180    3.8010   -0.2980 H         1 LIG         0.1500
@<TRIPOS>BOND
  1   1   2  1   
  2   1  16  1   
  3   2   3  1   
  4   2   4  1   
  5   2   5  1   
  6   5   6  1   
  7   5  14  2   
  8   6   7  1   
  9   7   8  1   
 10   7  12  2   
 11   8   9  1   
 12   8  10  1   
 13   8  11  1   
 14  12  13  1   
 15  12  14  1   
 16  14  15  1   
 17  16  17  ar  
 18  16  25  ar  
 19  17  18  ar  
 20  18  19  1   
 21  18  22  ar  
 22  19  20  1   
 23  19  21  1   
 24  22  23  1   
 25  22  24  ar  
 26  24  25  ar  
 27  24  43  1   
 28  25  26  1   
 29  26  27  1   
 30  26  41  1   
 31  27  28  1   
 32  27  29  1   
 33  27  30  1   
 34  30  31  ar  
 35  30  39  ar  
 36  31  32  1   
 37  31  33  ar  
 38  33  34  1   
 39  33  35  ar  
 40  35  36  1   
 41  35  37  ar  
 42  37  38  1   
 43  37  39  ar  
 44  39  40  1   
 45  41  42  1   
 46  41  43  2   
 47  43  44  1   
@<TRIPOS>SUBSTRUCTURE
  1 ****   1 GROUP 4 **** **** 0

# MOE 2018.01 (io_trps.svl 2018.01)

@<TRIPOS>MOLECULE
CHEMBL4079597
43 46 1 0 0 
SMALL
USER_CHARGES


@<TRIPOS>ATOM
      1 O1         -0.7080   -0.5810   -1.7650 O.3       1 LIG        -0.3630
      2 C1         -1.9730    0.0930   -2.0840 C.3       1 LIG         0.3000
      3 H1         -1.8680    0.6360   -3.0140 H         1 LIG         0.0800
      4 H2         -2.8020   -0.6020   -2.1000 H         1 LIG         0.0800
      5 C2         -2.1680    1.0980   -0.9670 C.2       1 LIG         0.2980
      6 O2         -3.4050    1.2980   -0.4940 O.3       1 LIG        -0.2800
      7 C3         -3.2890    2.2130    0.4470 C.2       1 LIG        -0.0400
      8 C4         -4.5000    2.6980    1.2060 C.3       1 LIG        -0.0600
      9 H3         -4.1910    3.4700    1.9110 H         1 LIG         0.0800
     10 H4         -4.9350    1.8480    1.7330 H         1 LIG         0.0800
     11 H5         -5.2130    3.1010    0.4850 H         1 LIG         0.0800
     12 C5         -1.9910    2.5460    0.5310 C.2       1 LIG         0.0770
     13 H6         -1.5890    3.2650    1.2000 H         1 LIG         0.1500
     14 N1         -1.2700    1.8240   -0.3790 N.2       1 LIG        -0.5650
     15 C6         -0.6210   -1.5810   -0.8810 C.ar      1 LIG         0.3920
     16 N2         -1.7010   -2.1890   -0.4560 N.ar      1 LIG        -0.6200
     17 C7         -1.5630   -3.2030    0.4300 C.ar      1 LIG         0.7710
     18 N3         -2.6470   -3.8280    0.8570 N.pl3     1 LIG        -0.9000
     19 H7         -2.6560   -4.6150    1.5220 H         1 LIG         0.4000
     20 H8         -3.5560   -3.5030    0.4830 H         1 LIG         0.4000
     21 N4         -0.3830   -3.6190    0.9110 N.ar      1 LIG        -0.1250
     22 H9         -0.3710   -4.3990    1.5760 H         1 LIG         0.4570
     23 C8          0.7740   -2.9890    0.5000 C.ar      1 LIG         0.3070
     24 C9          0.6430   -1.9660   -0.4030 C.ar      1 LIG        -0.1520
     25 N5          1.9360   -1.4970   -0.6460 N.pl3     1 LIG         0.0480
     26 C10         2.3440   -0.4060   -1.5480 C.3       1 LIG         0.2390
     27 H10         3.2600   -0.7010   -2.0440 H         1 LIG         0.0800
     28 H11         1.5700   -0.1750   -2.2640 H         1 LIG         0.0800
     29 C11         2.6350    0.8020   -0.6680 C.ar      1 LIG         0.2170
     30 N6          1.6010    1.6070   -0.3070 N.ar      1 LIG        -0.1790
     31 H12         0.6160    1.3920   -0.6130 H         1 LIG         0.4570
     32 C12         1.7630    2.7090    0.4520 C.ar      1 LIG         0.2110
     33 H13         0.8760    3.2610    0.6560 H         1 LIG         0.1500
     34 C13         3.0300    3.0470    0.9060 C.ar      1 LIG        -0.1500
     35 H14         3.1660    3.9140    1.5060 H         1 LIG         0.1500
     36 C14         4.1160    2.2510    0.5740 C.ar      1 LIG        -0.1500
     37 H15         5.0920    2.5010    0.9180 H         1 LIG         0.1500
     38 C15         3.9120    1.1270   -0.2170 C.ar      1 LIG        -0.1500
     39 H16         4.7410    0.5170   -0.4770 H         1 LIG         0.1500
     40 C16         2.8180   -2.2410    0.1120 C.2       1 LIG        -0.3020
     41 H17         3.8660   -2.0650    0.0860 H         1 LIG         0.1500
     42 C17         2.1150   -3.1720    0.8300 C.2       1 LIG        -0.1500
     43 H18         2.5240   -3.8870    1.4990 H         1 LIG         0.1500
@<TRIPOS>BOND
  1   1   2  1   
  2   1  15  1   
  3   2   3  1   
  4   2   4  1   
  5   2   5  1   
  6   5   6  1   
  7   5  14  2   
  8   6   7  1   
  9   7   8  1   
 10   7  12  2   
 11   8   9  1   
 12   8  10  1   
 13   8  11  1   
 14  12  13  1   
 15  12  14  1   
 16  15  16  ar  
 17  15  24  ar  
 18  16  17  ar  
 19  17  18  1   
 20  17  21  ar  
 21  18  19  1   
 22  18  20  1   
 23  21  22  1   
 24  21  23  ar  
 25  23  24  ar  
 26  23  42  1   
 27  24  25  1   
 28  25  26  1   
 29  25  40  1   
 30  26  27  1   
 31  26  28  1   
 32  26  29  1   
 33  29  30  ar  
 34  29  38  ar  
 35  30  31  1   
 36  30  32  ar  
 37  32  33  1   
 38  32  34  ar  
 39  34  35  1   
 40  34  36  ar  
 41  36  37  1   
 42  36  38  ar  
 43  38  39  1   
 44  40  41  1   
 45  40  42  2   
 46  42  43  1   
@<TRIPOS>SUBSTRUCTURE
  1 ****  15 GROUP 4 **** **** 0

# MOE 2018.01 (io_trps.svl 2018.01)

@<TRIPOS>MOLECULE
CHEMBL1760443
32 34 1 0 0 
SMALL
USER_CHARGES


@<TRIPOS>ATOM
      1 F1         -2.6420   -2.9930    0.3320 F         1 LIG        -0.3400
      2 C1         -3.2590   -2.0790   -0.4440 C.3       1 LIG         1.1640
      3 F2         -4.5710   -2.0440   -0.1200 F         1 LIG        -0.3400
      4 F3         -3.1500   -2.4710   -1.7330 F         1 LIG        -0.3400
      5 C2         -2.5780   -0.6960   -0.2620 C.ar      1 LIG         0.1660
      6 N1         -3.2040    0.3090    0.4470 N.ar      1 LIG        -0.6200
      7 C3         -2.6030    1.4790    0.6090 C.ar      1 LIG         0.4100
      8 N2         -3.3240    2.3990    1.3170 N.pl3     1 LIG        -0.9000
      9 H1         -4.3070    2.1070    1.4020 H         1 LIG         0.4000
     10 H2         -3.1890    3.3700    1.0120 H         1 LIG         0.4000
     11 C4         -1.3310    1.7300    0.0750 C.ar      1 LIG         0.1170
     12 N3         -0.4640    2.8260    0.1110 N.am      1 LIG        -0.5470
     13 H3         -0.5740    3.7090    0.6210 H         1 LIG         0.3700
     14 C5          0.6740    2.5270   -0.5650 C.2       1 LIG         0.6900
     15 O1          1.6470    3.2630   -0.6940 O.2       1 LIG        -0.5700
     16 N4          0.5310    1.2530   -1.0530 N.am      1 LIG        -0.4770
     17 C6          1.5760    0.5650   -1.8080 C.3       1 LIG         0.3210
     18 H4          1.1510    0.1390   -2.7070 H         1 LIG         0.0800
     19 H5          2.4020    1.2340   -2.0110 H         1 LIG         0.0800
     20 C7          2.0660   -0.5560   -0.9160 C.2       1 LIG         0.1080
     21 N5          1.9070   -1.8080   -1.1870 N.2       1 LIG        -0.4100
     22 O2          2.4490   -2.5050   -0.1810 O.3       1 LIG        -0.0190
     23 C8          2.9530   -1.6720    0.7330 C.2       1 LIG        -0.0400
     24 C9          3.6220   -2.1940    1.9800 C.3       1 LIG        -0.0600
     25 H6          3.9580   -1.3470    2.5770 H         1 LIG         0.0800
     26 H7          4.4660   -2.8130    1.6750 H         1 LIG         0.0800
     27 H8          2.8910   -2.7880    2.5290 H         1 LIG         0.0800
     28 C10         2.7280   -0.4230    0.2980 C.2       1 LIG        -0.1500
     29 H9          2.9970    0.4780    0.7850 H         1 LIG         0.1500
     30 C11        -0.7000    0.7500   -0.6420 C.ar      1 LIG         0.1170
     31 C12        -1.3100   -0.4910   -0.8200 C.ar      1 LIG        -0.1500
     32 H10        -0.8140   -1.2570   -1.3590 H         1 LIG         0.1500
@<TRIPOS>BOND
  1   1   2  1   
  2   2   3  1   
  3   2   4  1   
  4   2   5  1   
  5   5   6  ar  
  6   5  31  ar  
  7   6   7  ar  
  8   7   8  1   
  9   7  11  ar  
 10   8   9  1   
 11   8  10  1   
 12  11  12  1   
 13  11  30  ar  
 14  12  13  1   
 15  12  14  am  
 16  14  15  2   
 17  14  16  am  
 18  16  17  1   
 19  16  30  1   
 20  17  18  1   
 21  17  19  1   
 22  17  20  1   
 23  20  21  2   
 24  20  28  1   
 25  21  22  1   
 26  22  23  1   
 27  23  24  1   
 28  23  28  2   
 29  24  25  1   
 30  24  26  1   
 31  24  27  1   
 32  28  29  1   
 33  30  31  ar  
 34  31  32  1   
@<TRIPOS>SUBSTRUCTURE
  1 ****  30 GROUP 4 **** **** 0

# MOE 2018.01 (io_trps.svl 2018.01)

@<TRIPOS>MOLECULE
CHEMBL4642612
51 53 1 0 0 
SMALL
USER_CHARGES


@<TRIPOS>ATOM
      1 O1         -5.8880   -0.7060    0.8060 O.3       1 LIG        -0.3630
      2 C1         -7.0560    0.1450    0.7160 C.3       1 LIG         0.0400
      3 H1         -7.9260   -0.4590    0.9780 H         1 LIG         0.0800
      4 H2         -7.1450    0.5080   -0.3080 H         1 LIG         0.0800
      5 H3         -6.9430    0.9660    1.4240 H         1 LIG         0.0800
      6 C2         -4.5880   -0.3510    0.5630 C.ar      1 LIG         0.0820
      7 C3         -4.2350    0.9290    0.1710 C.ar      1 LIG        -0.1500
      8 H4         -4.9720    1.6770    0.0470 H         1 LIG         0.1500
      9 C4         -2.8800    1.2010   -0.0520 C.ar      1 LIG         0.3610
     10 N1         -2.5260    2.5140   -0.4340 N.ar      1 LIG        -0.1790
     11 H5         -3.2500    3.2310   -0.5460 H         1 LIG         0.4570
     12 C5         -1.2620    2.8760   -0.6550 C.ar      1 LIG         0.4610
     13 N2         -1.0740    4.1530   -0.9970 N.pl3     1 LIG        -0.9000
     14 H6         -1.8150    4.8640   -1.0990 H         1 LIG         0.4000
     15 H7         -0.0930    4.4560   -1.1730 H         1 LIG         0.4000
     16 C6         -0.2150    1.9170   -0.5210 C.ar      1 LIG         0.2270
     17 N3          1.1250    2.0970   -0.6970 N.2       1 LIG        -0.5650
     18 C7          1.6600    0.9400   -0.4790 C.2       1 LIG         0.0060
     19 C8          3.1530    0.6660   -0.5380 C.3       1 LIG         0.0200
     20 H8          3.3670   -0.3110   -0.9680 H         1 LIG         0.0800
     21 H9          3.6310    1.4310   -1.1520 H         1 LIG         0.0800
     22 C9          3.6790    0.7600    0.9030 C.3       1 LIG        -0.1600
     23 H10         3.4850    1.7650    1.2860 H         1 LIG         0.0800
     24 H11         3.1590    0.0420    1.5380 H         1 LIG         0.0800
     25 C10         5.1880    0.4800    0.9530 C.3       1 LIG        -0.1600
     26 H12         5.3920   -0.5170    0.5590 H         1 LIG         0.0800
     27 H13         5.7170    1.2140    0.3410 H         1 LIG         0.0800
     28 C11         5.7030    0.5640    2.3940 C.3       1 LIG        -0.2400
     29 H14         5.1970   -0.1730    3.0180 H         1 LIG         0.0800
     30 H15         5.5240    1.5620    2.7970 H         1 LIG         0.0800
     31 H16         6.7760    0.3650    2.4110 H         1 LIG         0.0800
     32 N4          0.6990   -0.0050   -0.1660 N.pl3     1 LIG         0.0480
     33 C12         0.9820   -1.4270    0.1050 C.3       1 LIG         0.0960
     34 H17         2.0410   -1.5850    0.2470 H         1 LIG         0.0800
     35 H18         0.4420   -1.7230    0.9910 H         1 LIG         0.0800
     36 C13         0.5140   -2.2570   -1.1210 C.3       1 LIG        -0.0800
     37 H19        -0.5010   -2.0050   -1.4330 H         1 LIG         0.0800
     38 C14         1.4600   -2.0360   -2.3140 C.3       1 LIG        -0.2400
     39 H20         2.4830   -2.3090   -2.0500 H         1 LIG         0.0800
     40 H21         1.4340   -0.9940   -2.6360 H         1 LIG         0.0800
     41 H22         1.1420   -2.6560   -3.1540 H         1 LIG         0.0800
     42 C15         0.5500   -3.7400   -0.7250 C.3       1 LIG        -0.2400
     43 H23         1.5590   -4.0350   -0.4330 H         1 LIG         0.0800
     44 H24         0.2350   -4.3560   -1.5690 H         1 LIG         0.0800
     45 H25        -0.1310   -3.9270    0.1070 H         1 LIG         0.0800
     46 C16        -0.5100    0.6240   -0.1720 C.ar      1 LIG        -0.1520
     47 C17        -1.8710    0.2140    0.0990 C.ar      1 LIG         0.0000
     48 C18        -2.2830   -1.0730    0.5090 C.ar      1 LIG        -0.1500
     49 H26        -1.5830   -1.8500    0.6530 H         1 LIG         0.1500
     50 C19        -3.6210   -1.3490    0.7340 C.ar      1 LIG        -0.1500
     51 H27        -3.9290   -2.3170    1.0400 H         1 LIG         0.1500
@<TRIPOS>BOND
  1   1   2  1   
  2   1   6  1   
  3   2   3  1   
  4   2   4  1   
  5   2   5  1   
  6   6   7  ar  
  7   6  50  ar  
  8   7   8  1   
  9   7   9  ar  
 10   9  10  ar  
 11   9  47  ar  
 12  10  11  1   
 13  10  12  ar  
 14  12  13  1   
 15  12  16  ar  
 16  13  14  1   
 17  13  15  1   
 18  16  17  1   
 19  16  46  ar  
 20  17  18  2   
 21  18  19  1   
 22  18  32  1   
 23  19  20  1   
 24  19  21  1   
 25  19  22  1   
 26  22  23  1   
 27  22  24  1   
 28  22  25  1   
 29  25  26  1   
 30  25  27  1   
 31  25  28  1   
 32  28  29  1   
 33  28  30  1   
 34  28  31  1   
 35  32  33  1   
 36  32  46  1   
 37  33  34  1   
 38  33  35  1   
 39  33  36  1   
 40  36  37  1   
 41  36  38  1   
 42  36  42  1   
 43  38  39  1   
 44  38  40  1   
 45  38  41  1   
 46  42  43  1   
 47  42  44  1   
 48  42  45  1   
 49  46  47  ar  
 50  47  48  ar  
 51  48  49  1   
 52  48  50  ar  
 53  50  51  1   
@<TRIPOS>SUBSTRUCTURE
  1 ****  46 GROUP 4 **** **** 0

# MOE 2018.01 (io_trps.svl 2018.01)

@<TRIPOS>MOLECULE
CHEMBL1836894
42 44 1 0 0 
SMALL
USER_CHARGES


@<TRIPOS>ATOM
      1 F1         -7.2700    1.3520    0.6450 F         1 LIG        -0.3400
      2 C1         -6.0800    1.7180    0.1250 C.3       1 LIG         1.1640
      3 F2         -6.2710    2.1800   -1.1280 F         1 LIG        -0.3400
      4 F3         -5.5670    2.7220    0.8710 F         1 LIG        -0.3400
      5 C2         -5.0630    0.5460    0.0870 C.ar      1 LIG         0.1660
      6 N1         -5.4370   -0.7260    0.4620 N.ar      1 LIG        -0.6200
      7 C3         -4.5600   -1.7170    0.4200 C.ar      1 LIG         0.4100
      8 N2         -5.0500   -2.9320    0.8070 N.pl3     1 LIG        -0.9000
      9 H1         -6.0790   -2.9130    0.8560 H         1 LIG         0.4000
     10 H2         -4.6640   -3.7330    0.2960 H         1 LIG         0.4000
     11 C4         -3.2380   -1.5070    0.0020 C.ar      1 LIG         0.1170
     12 N3         -2.1280   -2.3420   -0.1300 N.am      1 LIG        -0.5470
     13 H3         -2.0580   -3.3450    0.0820 H         1 LIG         0.3700
     14 C5         -1.0690   -1.6260   -0.5790 C.2       1 LIG         0.6900
     15 O1          0.0610   -2.0660   -0.7640 O.2       1 LIG        -0.5700
     16 N4         -1.4920   -0.3170   -0.7240 N.am      1 LIG        -0.4770
     17 C6         -0.6900    0.7510   -1.3310 C.3       1 LIG         0.2840
     18 H4         -0.5480    0.5160   -2.3790 H         1 LIG         0.0800
     19 H5         -1.1770    1.7070   -1.1880 H         1 LIG         0.0800
     20 C7          0.6670    0.7890   -0.6360 C.ar      1 LIG        -0.1440
     21 C8          0.7950    0.5790    0.7220 C.ar      1 LIG         0.2110
     22 H6         -0.0130    0.3970    1.3890 H         1 LIG         0.1500
     23 N5          2.0350    0.5700    1.2960 N.ar      1 LIG        -0.1790
     24 H7          2.1400    0.3940    2.3040 H         1 LIG         0.4570
     25 C9          3.1510    0.7690    0.5850 C.ar      1 LIG         0.4610
     26 N6          4.2890    0.7030    1.3110 N.pl3     1 LIG        -0.8690
     27 H8          4.2800    0.4440    2.3110 H         1 LIG         0.4000
     28 C10         5.6370    0.9360    0.7410 C.3       1 LIG         0.2090
     29 H9          5.6210    1.6810   -0.0570 H         1 LIG         0.0800
     30 H10         6.3250    1.2810    1.5160 H         1 LIG         0.0800
     31 C11         6.1370   -0.4070    0.1900 C.3       1 LIG         0.1200
     32 H11         5.4250   -0.7940   -0.5410 H         1 LIG         0.0800
     33 H12         6.2370   -1.1210    1.0090 H         1 LIG         0.0800
     34 O2          7.3910   -0.2030   -0.4320 O.3       1 LIG        -0.6800
     35 H13         7.7450   -1.0400   -0.7530 H         1 LIG         0.4000
     36 C12         3.0590    1.0170   -0.8030 C.ar      1 LIG        -0.1500
     37 H14         3.9390    1.1820   -1.3690 H         1 LIG         0.1500
     38 C13         1.8260    1.0250   -1.4080 C.ar      1 LIG        -0.1500
     39 H15         1.7460    1.1950   -2.4550 H         1 LIG         0.1500
     40 C14        -2.8420   -0.2510   -0.3710 C.ar      1 LIG         0.1170
     41 C15        -3.7540    0.8050   -0.3420 C.ar      1 LIG        -0.1500
     42 H16        -3.4600    1.7790   -0.6360 H         1 LIG         0.1500
@<TRIPOS>BOND
  1   1   2  1   
  2   2   3  1   
  3   2   4  1   
  4   2   5  1   
  5   5   6  ar  
  6   5  41  ar  
  7   6   7  ar  
  8   7   8  1   
  9   7  11  ar  
 10   8   9  1   
 11   8  10  1   
 12  11  12  1   
 13  11  40  ar  
 14  12  13  1   
 15  12  14  am  
 16  14  15  2   
 17  14  16  am  
 18  16  17  1   
 19  16  40  1   
 20  17  18  1   
 21  17  19  1   
 22  17  20  1   
 23  20  21  ar  
 24  20  38  ar  
 25  21  22  1   
 26  21  23  ar  
 27  23  24  1   
 28  23  25  ar  
 29  25  26  1   
 30  25  36  ar  
 31  26  27  1   
 32  26  28  1   
 33  28  29  1   
 34  28  30  1   
 35  28  31  1   
 36  31  32  1   
 37  31  33  1   
 38  31  34  1   
 39  34  35  1   
 40  36  37  1   
 41  36  38  ar  
 42  38  39  1   
 43  40  41  ar  
 44  41  42  1   
@<TRIPOS>SUBSTRUCTURE
  1 ****  16 GROUP 4 **** **** 0

# MOE 2018.01 (io_trps.svl 2018.01)

@<TRIPOS>MOLECULE
CHEMBL4097707
41 44 1 0 0 
SMALL
USER_CHARGES


@<TRIPOS>ATOM
      1 N1         -0.4560   -1.3630   -0.4960 N.pl3     1 LIG        -0.8690
      2 H1         -0.6590   -1.1280   -1.4810 H         1 LIG         0.4000
      3 C1         -1.4660   -2.2960    0.0850 C.3       1 LIG         0.3890
      4 H2         -1.4190   -3.2590   -0.4080 H         1 LIG         0.0800
      5 H3         -1.3470   -2.3760    1.1580 H         1 LIG         0.0800
      6 C2         -2.8270   -1.6680   -0.1950 C.2       1 LIG         0.2980
      7 O1         -3.9130   -2.4540   -0.2080 O.3       1 LIG        -0.2800
      8 C3         -4.9300   -1.6530   -0.4730 C.2       1 LIG        -0.0100
      9 H4         -5.9220   -2.0250   -0.5460 H         1 LIG         0.1500
     10 C4         -4.4510   -0.4080   -0.6110 C.2       1 LIG         0.0770
     11 H5         -5.0300    0.4540   -0.8310 H         1 LIG         0.1500
     12 N2         -3.0970   -0.4200   -0.4280 N.2       1 LIG        -0.5650
     13 C5          0.8390   -1.3920   -0.1300 C.ar      1 LIG         0.4100
     14 N3          1.2480   -2.3530    0.6700 N.ar      1 LIG        -0.6200
     15 C6          2.5600   -2.4490    0.9310 C.ar      1 LIG         0.7710
     16 N4          2.9890   -3.4220    1.7250 N.pl3     1 LIG        -0.9000
     17 H6          3.9710   -3.5830    1.9890 H         1 LIG         0.4000
     18 H7          2.2780   -4.0730    2.0990 H         1 LIG         0.4000
     19 N5          3.4910   -1.6160    0.4330 N.ar      1 LIG        -0.1250
     20 H8          4.4750   -1.7790    0.6690 H         1 LIG         0.4570
     21 C7          3.0920   -0.5530   -0.3550 C.ar      1 LIG         0.3070
     22 C8          1.7520   -0.4330   -0.6130 C.ar      1 LIG        -0.1520
     23 N6          1.6050    0.7580   -1.3320 N.pl3     1 LIG         0.0480
     24 C9          0.3540    1.4340   -1.7100 C.3       1 LIG         0.2390
     25 H9          0.5730    2.1890   -2.4530 H         1 LIG         0.0800
     26 H10        -0.3710    0.7170   -2.0650 H         1 LIG         0.0800
     27 C10        -0.1340    2.1240   -0.4410 C.ar      1 LIG         0.2180
     28 N7         -1.1340    1.5310    0.2550 N.ar      1 LIG        -0.1790
     29 H11        -1.5510    0.6250   -0.0900 H         1 LIG         0.4570
     30 C11        -1.6490    2.0410    1.3890 C.ar      1 LIG         0.2110
     31 H12        -2.4370    1.4780    1.8310 H         1 LIG         0.1500
     32 C12        -1.1370    3.2290    1.8920 C.ar      1 LIG        -0.1500
     33 H13        -1.5340    3.6430    2.7870 H         1 LIG         0.1500
     34 C13        -0.1080    3.8760    1.2210 C.ar      1 LIG        -0.1500
     35 H14         0.2910    4.7880    1.5970 H         1 LIG         0.1500
     36 C14         0.3900    3.3170    0.0500 C.ar      1 LIG        -0.1500
     37 H15         1.1770    3.8080   -0.4700 H         1 LIG         0.1500
     38 C15         2.8570    1.3040   -1.5310 C.2       1 LIG        -0.3020
     39 H16         2.9930    2.2130   -2.0660 H         1 LIG         0.1500
     40 C16         3.7920    0.5020   -0.9340 C.2       1 LIG        -0.1500
     41 H17         4.8410    0.6710   -0.9140 H         1 LIG         0.1500
@<TRIPOS>BOND
  1   1   2  1   
  2   1   3  1   
  3   1  13  1   
  4   3   4  1   
  5   3   5  1   
  6   3   6  1   
  7   6   7  1   
  8   6  12  2   
  9   7   8  1   
 10   8   9  1   
 11   8  10  2   
 12  10  11  1   
 13  10  12  1   
 14  13  14  ar  
 15  13  22  ar  
 16  14  15  ar  
 17  15  16  1   
 18  15  19  ar  
 19  16  17  1   
 20  16  18  1   
 21  19  20  1   
 22  19  21  ar  
 23  21  22  ar  
 24  21  40  1   
 25  22  23  1   
 26  23  24  1   
 27  23  38  1   
 28  24  25  1   
 29  24  26  1   
 30  24  27  1   
 31  27  28  ar  
 32  27  36  ar  
 33  28  29  1   
 34  28  30  ar  
 35  30  31  1   
 36  30  32  ar  
 37  32  33  1   
 38  32  34  ar  
 39  34  35  1   
 40  34  36  ar  
 41  36  37  1   
 42  38  39  1   
 43  38  40  2   
 44  40  41  1   
@<TRIPOS>SUBSTRUCTURE
  1 ****   1 GROUP 4 **** **** 0

# MOE 2018.01 (io_trps.svl 2018.01)

@<TRIPOS>MOLECULE
CHEMBL4066900
41 43 1 0 0 
SMALL
USER_CHARGES


@<TRIPOS>ATOM
      1 N1          0.3300   -0.5650    0.6710 N.pl3     1 LIG        -0.8690
      2 H1          0.4950    0.1160    1.4190 H         1 LIG         0.4000
      3 C1          1.4220   -1.5360    0.4950 C.3       1 LIG         0.2090
      4 H2          1.3330   -2.3510    1.2170 H         1 LIG         0.0800
      5 H3          1.4260   -1.9420   -0.5200 H         1 LIG         0.0800
      6 C2          2.7080   -0.7450    0.7490 C.3       1 LIG        -0.1600
      7 H4          2.8090    0.0300   -0.0120 H         1 LIG         0.0800
      8 H5          2.6500   -0.2700    1.7290 H         1 LIG         0.0800
      9 C3          3.9650   -1.6290    0.7260 C.3       1 LIG        -0.1600
     10 H6          4.8250   -1.0150    1.0020 H         1 LIG         0.0800
     11 H7          3.8700   -2.4230    1.4700 H         1 LIG         0.0800
     12 C4          4.2380   -2.2520   -0.6490 C.3       1 LIG        -0.2400
     13 H8          4.3060   -1.4720   -1.4100 H         1 LIG         0.0800
     14 H9          3.4510   -2.9560   -0.9180 H         1 LIG         0.0800
     15 H10         5.1860   -2.7920   -0.6190 H         1 LIG         0.0800
     16 C5         -0.9320   -0.8270    0.2690 C.ar      1 LIG         0.4100
     17 N2         -1.1740   -1.9950   -0.2940 N.ar      1 LIG        -0.6200
     18 C6         -2.4240   -2.2980   -0.6540 C.ar      1 LIG         0.7710
     19 N3         -2.6690   -3.4810   -1.2020 N.pl3     1 LIG        -0.9000
     20 H11        -3.5920   -3.8210   -1.5010 H         1 LIG         0.4000
     21 H12        -1.8600   -4.1170   -1.3130 H         1 LIG         0.4000
     22 N4         -3.4680   -1.4700   -0.4980 N.ar      1 LIG        -0.1250
     23 H13        -4.3950   -1.7950   -0.7880 H         1 LIG         0.4570
     24 C7         -3.2580   -0.2150    0.0420 C.ar      1 LIG         0.3070
     25 C8         -1.9830    0.1050    0.4330 C.ar      1 LIG        -0.1520
     26 N5         -2.0550    1.4160    0.9250 N.pl3     1 LIG         0.0480
     27 C9         -0.9750    2.2440    1.4810 C.3       1 LIG         0.2760
     28 H14        -1.4020    3.0970    1.9940 H         1 LIG         0.0800
     29 H15        -0.3650    1.6420    2.1400 H         1 LIG         0.0800
     30 C10        -0.1340    2.7390    0.3130 C.2       1 LIG         0.1940
     31 S1          1.5710    2.7570    0.3130 S.3       1 LIG        -0.0800
     32 C11         1.6190    3.4430   -1.2630 C.2       1 LIG        -0.1100
     33 H16         2.5440    3.6550   -1.7400 H         1 LIG         0.1500
     34 C12         0.3680    3.6460   -1.7400 C.2       1 LIG         0.1830
     35 H17         0.0770    4.0560   -2.6770 H         1 LIG         0.1500
     36 N6         -0.5980    3.2460   -0.8340 N.pl3     1 LIG        -0.1170
     37 H18        -1.6160    3.3330   -1.0270 H         1 LIG         0.4500
     38 C13        -3.3580    1.8580    0.8080 C.2       1 LIG        -0.3020
     39 H19        -3.6570    2.8270    1.1320 H         1 LIG         0.1500
     40 C14        -4.1180    0.8580    0.2650 C.2       1 LIG        -0.1500
     41 H20        -5.1610    0.8990    0.0680 H         1 LIG         0.1500
@<TRIPOS>BOND
  1   1   2  1   
  2   1   3  1   
  3   1  16  1   
  4   3   4  1   
  5   3   5  1   
  6   3   6  1   
  7   6   7  1   
  8   6   8  1   
  9   6   9  1   
 10   9  10  1   
 11   9  11  1   
 12   9  12  1   
 13  12  13  1   
 14  12  14  1   
 15  12  15  1   
 16  16  17  ar  
 17  16  25  ar  
 18  17  18  ar  
 19  18  19  1   
 20  18  22  ar  
 21  19  20  1   
 22  19  21  1   
 23  22  23  1   
 24  22  24  ar  
 25  24  25  ar  
 26  24  40  1   
 27  25  26  1   
 28  26  27  1   
 29  26  38  1   
 30  27  28  1   
 31  27  29  1   
 32  27  30  1   
 33  30  31  1   
 34  30  36  2   
 35  31  32  1   
 36  32  33  1   
 37  32  34  2   
 38  34  35  1   
 39  34  36  1   
 40  36  37  1   
 41  38  39  1   
 42  38  40  2   
 43  40  41  1   
@<TRIPOS>SUBSTRUCTURE
  1 ****  16 GROUP 4 **** **** 0

# MOE 2018.01 (io_trps.svl 2018.01)

@<TRIPOS>MOLECULE
CHEMBL4065927
53 55 1 0 0 
SMALL
USER_CHARGES


@<TRIPOS>ATOM
      1 N1         -1.7030    0.1270    1.0940 N.pl3     1 LIG        -0.8690
      2 H1         -1.8110    0.9830    1.6610 H         1 LIG         0.4000
      3 C1         -2.9780   -0.5540    0.8630 C.3       1 LIG         0.2090
      4 H2         -2.9310   -1.2320    0.0090 H         1 LIG         0.0800
      5 H3         -3.2860   -1.1020    1.7570 H         1 LIG         0.0800
      6 C2         -3.9730    0.5720    0.5730 C.3       1 LIG        -0.1600
      7 H4         -4.0330    1.2320    1.4410 H         1 LIG         0.0800
      8 H5         -3.6240    1.1500   -0.2850 H         1 LIG         0.0800
      9 C3         -5.3660    0.0070    0.2680 C.3       1 LIG        -0.1600
     10 H6         -5.3170   -0.6440   -0.6070 H         1 LIG         0.0800
     11 H7         -5.7230   -0.5760    1.1200 H         1 LIG         0.0800
     12 C4         -6.3560    1.1430   -0.0100 C.3       1 LIG        -0.2400
     13 H8         -6.0240    1.7310   -0.8670 H         1 LIG         0.0800
     14 H9         -6.4360    1.7930    0.8630 H         1 LIG         0.0800
     15 H10        -7.3400    0.7260   -0.2290 H         1 LIG         0.0800
     16 C5         -0.7800    0.2400    0.1310 C.ar      1 LIG         0.4100
     17 C6         -0.1590   -0.8630   -0.5320 C.ar      1 LIG        -0.1440
     18 C7         -0.3780   -2.3000   -0.0400 C.3       1 LIG        -0.0170
     19 H11        -1.0600   -2.3300    0.8080 H         1 LIG         0.0800
     20 H12        -0.8210   -2.9000   -0.8360 H         1 LIG         0.0800
     21 C8          0.9450   -2.9530    0.4300 C.3       1 LIG        -0.1600
     22 H13         1.5910   -3.1980   -0.4100 H         1 LIG         0.0800
     23 H14         0.6850   -3.9000    0.9050 H         1 LIG         0.0800
     24 C9          1.6710   -2.0830    1.4980 C.3       1 LIG         0.0960
     25 H15         2.2030   -2.7420    2.1700 H         1 LIG         0.0800
     26 H16         0.9570   -1.4650    2.0240 H         1 LIG         0.0800
     27 N2          2.6780   -1.2490    0.8240 N.pl3     1 LIG         0.0480
     28 C10         2.7990    0.1360    0.9070 C.ar      1 LIG        -0.1520
     29 C11         3.8830    0.5080    0.1190 C.ar      1 LIG         0.0000
     30 C12         4.4420   -0.6730   -0.4130 C.2       1 LIG        -0.1500
     31 H17         5.3030   -0.7320   -1.0290 H         1 LIG         0.1500
     32 C13         3.7090   -1.7250    0.0330 C.2       1 LIG        -0.3020
     33 H18         3.8490   -2.7620   -0.1380 H         1 LIG         0.1500
     34 C14         4.2300    1.8670    0.0230 C.ar      1 LIG        -0.1500
     35 H19         5.0590    2.1620   -0.5660 H         1 LIG         0.1500
     36 C15         3.4940    2.8040    0.7300 C.ar      1 LIG        -0.1500
     37 H20         3.7550    3.8310    0.6790 H         1 LIG         0.1500
     38 C16         2.4080    2.4050    1.5430 C.ar      1 LIG        -0.1500
     39 H21         1.8680    3.1360    2.0890 H         1 LIG         0.1500
     40 C17         2.0540    1.0710    1.6410 C.ar      1 LIG        -0.1500
     41 H22         1.2460    0.7680    2.2560 H         1 LIG         0.1500
     42 C18         0.6590   -0.5630   -1.5980 C.ar      1 LIG         0.2170
     43 C19         1.3420   -1.5200   -2.5590 C.3       1 LIG        -0.0960
     44 H23         2.3960   -1.5970   -2.2960 H         1 LIG         0.0800
     45 H24         1.2370   -1.1410   -3.5760 H         1 LIG         0.0800
     46 H25         0.8660   -2.4980   -2.5030 H         1 LIG         0.0800
     47 N3          0.9250    0.7530   -1.8400 N.ar      1 LIG        -0.1790
     48 H26         1.5850    1.0360   -2.5680 H         1 LIG         0.4570
     49 C20         0.3570    1.7230   -1.1130 C.ar      1 LIG         0.7710
     50 N4          0.6840    2.9700   -1.4230 N.pl3     1 LIG        -0.9000
     51 H27         1.4740    3.2240   -2.0270 H         1 LIG         0.4000
     52 H28         0.2570    3.7090   -0.8430 H         1 LIG         0.4000
     53 N5         -0.5130    1.4920   -0.1530 N.ar      1 LIG        -0.6200
@<TRIPOS>BOND
  1   1   2  1   
  2   1   3  1   
  3   1  16  1   
  4   3   4  1   
  5   3   5  1   
  6   3   6  1   
  7   6   7  1   
  8   6   8  1   
  9   6   9  1   
 10   9  10  1   
 11   9  11  1   
 12   9  12  1   
 13  12  13  1   
 14  12  14  1   
 15  12  15  1   
 16  16  17  ar  
 17  16  53  ar  
 18  17  18  1   
 19  17  42  ar  
 20  18  19  1   
 21  18  20  1   
 22  18  21  1   
 23  21  22  1   
 24  21  23  1   
 25  21  24  1   
 26  24  25  1   
 27  24  26  1   
 28  24  27  1   
 29  27  28  1   
 30  27  32  1   
 31  28  29  ar  
 32  28  40  ar  
 33  29  30  1   
 34  29  34  ar  
 35  30  31  1   
 36  30  32  2   
 37  32  33  1   
 38  34  35  1   
 39  34  36  ar  
 40  36  37  1   
 41  36  38  ar  
 42  38  39  1   
 43  38  40  ar  
 44  40  41  1   
 45  42  43  1   
 46  42  47  ar  
 47  43  44  1   
 48  43  45  1   
 49  43  46  1   
 50  47  48  1   
 51  47  49  ar  
 52  49  50  1   
 53  49  53  ar  
 54  50  51  1   
 55  50  52  1   
@<TRIPOS>SUBSTRUCTURE
  1 ****  16 GROUP 4 **** **** 0

# MOE 2018.01 (io_trps.svl 2018.01)

@<TRIPOS>MOLECULE
CHEMBL4065786
44 47 1 0 0 
SMALL
USER_CHARGES


@<TRIPOS>ATOM
      1 N1         -0.2390    1.2410    0.1960 N.pl3     1 LIG        -0.8690
      2 H1         -0.6880    0.6960   -0.5550 H         1 LIG         0.4000
      3 C1         -1.2270    2.1280    0.8420 C.3       1 LIG         0.3890
      4 H2         -1.2170    1.9960    1.9160 H         1 LIG         0.0800
      5 H3         -1.0720    3.1570    0.5430 H         1 LIG         0.0800
      6 C2         -2.5770    1.6720    0.2970 C.2       1 LIG         0.2980
      7 O1         -3.6980    2.2240    0.7870 O.3       1 LIG        -0.2800
      8 C3         -4.6880    1.6470    0.1300 C.2       1 LIG        -0.0100
      9 H4         -5.6980    1.9060    0.3220 H         1 LIG         0.1500
     10 C4         -4.1610    0.7660   -0.7350 C.2       1 LIG         0.0460
     11 C5         -4.9140   -0.1180   -1.6970 C.3       1 LIG        -0.0590
     12 H5         -5.9800    0.0840   -1.6010 H         1 LIG         0.0800
     13 H6         -4.6950   -1.1560   -1.4460 H         1 LIG         0.0800
     14 H7         -4.5710    0.1140   -2.7050 H         1 LIG         0.0800
     15 N2         -2.8070    0.7840   -0.6210 N.2       1 LIG        -0.5650
     16 C6          1.0850    1.4360    0.2070 C.ar      1 LIG         0.4100
     17 N3          1.5600    2.4490    0.9010 N.ar      1 LIG        -0.6200
     18 C7          2.8750    2.6930    0.8520 C.ar      1 LIG         0.7710
     19 N4          3.3650    3.7140    1.5440 N.pl3     1 LIG        -0.9000
     20 H8          4.3560    3.9900    1.5780 H         1 LIG         0.4000
     21 H9          2.6890    4.2730    2.0910 H         1 LIG         0.4000
     22 N5          3.7500    1.9650    0.1390 N.ar      1 LIG        -0.1250
     23 H10         4.7350    2.2460    0.1410 H         1 LIG         0.4570
     24 C8          3.2980    0.8630   -0.5650 C.ar      1 LIG         0.3070
     25 C9          1.9560    0.5940   -0.5170 C.ar      1 LIG        -0.1520
     26 N6          1.7700   -0.5740   -1.2710 N.pl3     1 LIG         0.0480
     27 C10         0.5230   -1.3300   -1.4940 C.3       1 LIG         0.2390
     28 H11        -0.2950   -0.6420   -1.6590 H         1 LIG         0.0800
     29 H12         0.6510   -1.9990   -2.3350 H         1 LIG         0.0800
     30 C11         0.2640   -2.1500   -0.2320 C.ar      1 LIG         0.2180
     31 N7          1.2040   -3.0600    0.1290 N.ar      1 LIG        -0.1790
     32 H13         2.0620   -3.1560   -0.4510 H         1 LIG         0.4570
     33 C12         1.0870   -3.8520    1.2160 C.ar      1 LIG         0.2110
     34 H14         1.8930   -4.5250    1.3910 H         1 LIG         0.1500
     35 C13        -0.0420   -3.7440    2.0150 C.ar      1 LIG        -0.1500
     36 H15        -0.1470   -4.3600    2.8750 H         1 LIG         0.1500
     37 C14        -1.0340   -2.8310    1.6880 C.ar      1 LIG        -0.1500
     38 H16        -1.9050   -2.7400    2.2920 H         1 LIG         0.1500
     39 C15        -0.8770   -2.0380    0.5580 C.ar      1 LIG        -0.1500
     40 H17        -1.6390   -1.3440    0.3040 H         1 LIG         0.1500
     41 C16         2.9970   -0.9720   -1.7670 C.2       1 LIG        -0.3020
     42 H18         3.1040   -1.8230   -2.3950 H         1 LIG         0.1500
     43 C17         3.9550   -0.0910   -1.3390 C.2       1 LIG        -0.1500
     44 H19         4.9910   -0.1310   -1.5670 H         1 LIG         0.1500
@<TRIPOS>BOND
  1   1   2  1   
  2   1   3  1   
  3   1  16  1   
  4   3   4  1   
  5   3   5  1   
  6   3   6  1   
  7   6   7  1   
  8   6  15  2   
  9   7   8  1   
 10   8   9  1   
 11   8  10  2   
 12  10  11  1   
 13  10  15  1   
 14  11  12  1   
 15  11  13  1   
 16  11  14  1   
 17  16  17  ar  
 18  16  25  ar  
 19  17  18  ar  
 20  18  19  1   
 21  18  22  ar  
 22  19  20  1   
 23  19  21  1   
 24  22  23  1   
 25  22  24  ar  
 26  24  25  ar  
 27  24  43  1   
 28  25  26  1   
 29  26  27  1   
 30  26  41  1   
 31  27  28  1   
 32  27  29  1   
 33  27  30  1   
 34  30  31  ar  
 35  30  39  ar  
 36  31  32  1   
 37  31  33  ar  
 38  33  34  1   
 39  33  35  ar  
 40  35  36  1   
 41  35  37  ar  
 42  37  38  1   
 43  37  39  ar  
 44  39  40  1   
 45  41  42  1   
 46  41  43  2   
 47  43  44  1   
@<TRIPOS>SUBSTRUCTURE
  1 ****   1 GROUP 4 **** **** 0

# MOE 2018.01 (io_trps.svl 2018.01)

@<TRIPOS>MOLECULE
CHEMBL4170901
60 63 1 0 0 
SMALL
USER_CHARGES


@<TRIPOS>ATOM
      1 O1         -5.8960    0.1890    1.3960 O.2       1 LIG        -0.5700
      2 C1         -5.3830   -0.6700    0.6990 C.2       1 LIG         0.6340
      3 O2         -6.1900   -1.5760    0.0930 O.3       1 LIG        -0.4300
      4 C2         -7.6360   -1.5520    0.2810 C.3       1 LIG         0.0400
      5 H1         -8.0680   -2.3810   -0.2800 H         1 LIG         0.0800
      6 H2         -8.0180   -0.5990   -0.0900 H         1 LIG         0.0800
      7 H3         -7.8500   -1.6590    1.3460 H         1 LIG         0.0800
      8 C3         -3.9420   -0.7780    0.4680 C.ar      1 LIG         0.0860
      9 C4         -3.4200   -1.6840   -0.4570 C.ar      1 LIG        -0.1500
     10 H4         -4.0740   -2.3130   -1.0060 H         1 LIG         0.1500
     11 C5         -2.0380   -1.7530   -0.6560 C.ar      1 LIG         0.3610
     12 N1         -1.5500   -2.6760   -1.6090 N.ar      1 LIG        -0.1790
     13 H5         -2.2000   -3.2730   -2.1330 H         1 LIG         0.4570
     14 C6         -0.2480   -2.8100   -1.8680 C.ar      1 LIG         0.4610
     15 N2          0.0700   -3.7170   -2.7930 N.pl3     1 LIG        -0.9000
     16 H6         -0.5990   -4.3120   -3.3080 H         1 LIG         0.4000
     17 H7          1.0820   -3.8410   -3.0080 H         1 LIG         0.4000
     18 C7          0.7020   -2.0070   -1.1650 C.ar      1 LIG         0.2270
     19 N3          2.0590   -2.0070   -1.2780 N.2       1 LIG        -0.5650
     20 C8          2.4780   -1.1280   -0.4270 C.2       1 LIG         0.0060
     21 C9          3.9450   -0.8000   -0.1890 C.3       1 LIG         0.0200
     22 H8          4.5320   -1.1350   -1.0460 H         1 LIG         0.0800
     23 H9          4.0900    0.2740   -0.0750 H         1 LIG         0.0800
     24 C10         4.4170   -1.5420    1.0780 C.3       1 LIG        -0.1600
     25 H10         5.4350   -1.2160    1.3000 H         1 LIG         0.0800
     26 H11         3.7880   -1.2770    1.9270 H         1 LIG         0.0800
     27 C11         4.4230   -3.0710    0.9170 C.3       1 LIG        -0.1600
     28 H12         3.4100   -3.4320    0.7290 H         1 LIG         0.0800
     29 H13         5.0520   -3.3480    0.0680 H         1 LIG         0.0800
     30 C12         4.9600   -3.7430    2.1840 C.3       1 LIG        -0.2400
     31 H14         4.3300   -3.4910    3.0380 H         1 LIG         0.0800
     32 H15         5.9820   -3.4150    2.3790 H         1 LIG         0.0800
     33 H16         4.9580   -4.8260    2.0510 H         1 LIG         0.0800
     34 N4          1.4220   -0.5340    0.2390 N.pl3     1 LIG         0.0480
     35 C13         1.5750    0.5330    1.2470 C.3       1 LIG         0.2390
     36 H17         0.9390    0.3130    2.0910 H         1 LIG         0.0800
     37 H18         2.6040    0.6060    1.5630 H         1 LIG         0.0800
     38 C14         1.1930    1.8710    0.6140 C.ar      1 LIG        -0.1440
     39 C15         1.5410    2.1940   -0.7010 C.ar      1 LIG        -0.1500
     40 H19         2.0630    1.4970   -1.3070 H         1 LIG         0.1500
     41 C16         1.2240    3.4400   -1.2320 C.ar      1 LIG        -0.1500
     42 H20         1.5130    3.6610   -2.2300 H         1 LIG         0.1500
     43 C17         0.5560    4.3870   -0.4570 C.ar      1 LIG        -0.1440
     44 C18         0.2160    5.7390   -1.0340 C.3       1 LIG         0.4870
     45 H21         0.9510    6.0000   -1.7880 H         1 LIG         0.0800
     46 H22         0.1490    6.4670   -0.2320 H         1 LIG         0.0800
     47 N5         -1.0870    5.4970   -1.6330 N.4       1 LIG        -0.8530
     48 H23        -0.9820    4.7180   -2.2670 H         1 LIG         0.4500
     49 H24        -1.4040    6.3300   -2.1080 H         1 LIG         0.4500
     50 H25        -1.7160    5.2290   -0.8900 H         1 LIG         0.4500
     51 C19         0.2090    4.0700    0.8570 C.ar      1 LIG        -0.1500
     52 H26        -0.2870    4.7790    1.4730 H         1 LIG         0.1500
     53 C20         0.5290    2.8240    1.3860 C.ar      1 LIG        -0.1500
     54 H27         0.2750    2.6100    2.3950 H         1 LIG         0.1500
     55 C21         0.2750   -1.1000   -0.2300 C.ar      1 LIG        -0.1520
     56 C22        -1.1310   -0.9310    0.0600 C.ar      1 LIG         0.0000
     57 C23        -1.6800   -0.0250    0.9890 C.ar      1 LIG        -0.1500
     58 H28        -1.0580    0.6140    1.5520 H         1 LIG         0.1500
     59 C24        -3.0480    0.0470    1.1850 C.ar      1 LIG        -0.1500
     60 H29        -3.4410    0.7360    1.8930 H         1 LIG         0.1500
@<TRIPOS>BOND
  1   1   2  2   
  2   2   3  1   
  3   2   8  1   
  4   3   4  1   
  5   4   5  1   
  6   4   6  1   
  7   4   7  1   
  8   8   9  ar  
  9   8  59  ar  
 10   9  10  1   
 11   9  11  ar  
 12  11  12  ar  
 13  11  56  ar  
 14  12  13  1   
 15  12  14  ar  
 16  14  15  1   
 17  14  18  ar  
 18  15  16  1   
 19  15  17  1   
 20  18  19  1   
 21  18  55  ar  
 22  19  20  2   
 23  20  21  1   
 24  20  34  1   
 25  21  22  1   
 26  21  23  1   
 27  21  24  1   
 28  24  25  1   
 29  24  26  1   
 30  24  27  1   
 31  27  28  1   
 32  27  29  1   
 33  27  30  1   
 34  30  31  1   
 35  30  32  1   
 36  30  33  1   
 37  34  35  1   
 38  34  55  1   
 39  35  36  1   
 40  35  37  1   
 41  35  38  1   
 42  38  39  ar  
 43  38  53  ar  
 44  39  40  1   
 45  39  41  ar  
 46  41  42  1   
 47  41  43  ar  
 48  43  44  1   
 49  43  51  ar  
 50  44  45  1   
 51  44  46  1   
 52  44  47  1   
 53  47  48  1   
 54  47  49  1   
 55  47  50  1   
 56  51  52  1   
 57  51  53  ar  
 58  53  54  1   
 59  55  56  ar  
 60  56  57  ar  
 61  57  58  1   
 62  57  59  ar  
 63  59  60  1   
@<TRIPOS>SUBSTRUCTURE
  1 ****  56 GROUP 4 **** **** 0

# MOE 2018.01 (io_trps.svl 2018.01)

@<TRIPOS>MOLECULE
CHEMBL4103710
49 50 1 0 0 
SMALL
USER_CHARGES


@<TRIPOS>ATOM
      1 N1         -0.9110    1.2100   -0.2990 N.pl3     1 LIG        -0.8690
      2 H1          0.0040    0.7320   -0.3040 H         1 LIG         0.4000
      3 C1         -0.8820    2.6740   -0.3360 C.3       1 LIG         0.2090
      4 H2         -1.4870    3.0410   -1.1680 H         1 LIG         0.0800
      5 H3         -1.2530    3.0960    0.6000 H         1 LIG         0.0800
      6 C2          0.5840    3.0620   -0.5550 C.3       1 LIG        -0.1600
      7 H4          0.9760    2.5320   -1.4240 H         1 LIG         0.0800
      8 H5          0.6150    4.1300   -0.7730 H         1 LIG         0.0800
      9 C3          1.4720    2.7880    0.6710 C.3       1 LIG        -0.1600
     10 H6          1.0590    3.3000    1.5430 H         1 LIG         0.0800
     11 H7          1.5030    1.7180    0.8790 H         1 LIG         0.0800
     12 C4          2.8970    3.2930    0.4210 C.3       1 LIG        -0.2400
     13 H8          2.8870    4.3670    0.2330 H         1 LIG         0.0800
     14 H9          3.3280    2.7800   -0.4400 H         1 LIG         0.0800
     15 H10         3.5140    3.0950    1.2980 H         1 LIG         0.0800
     16 C5         -2.0410    0.4790   -0.2380 C.ar      1 LIG         0.4100
     17 C6         -1.9890   -0.9440   -0.2540 C.ar      1 LIG        -0.1440
     18 C7         -0.6510   -1.6730   -0.3610 C.3       1 LIG        -0.0170
     19 H11        -0.7690   -2.6610   -0.8050 H         1 LIG         0.0800
     20 H12         0.0380   -1.1100   -0.9940 H         1 LIG         0.0800
     21 C8         -0.0950   -1.7980    1.0690 C.3       1 LIG        -0.1600
     22 H13         0.0260   -0.8050    1.5060 H         1 LIG         0.0800
     23 H14        -0.7920   -2.3620    1.6880 H         1 LIG         0.0800
     24 C9          1.2650   -2.5100    1.0890 C.3       1 LIG        -0.0170
     25 H15         1.1630   -3.5050    0.6510 H         1 LIG         0.0800
     26 H16         1.5700   -2.6490    2.1280 H         1 LIG         0.0800
     27 C10         2.3640   -1.7560    0.3660 C.ar      1 LIG        -0.1440
     28 C11         2.6890   -2.0710   -0.9680 C.ar      1 LIG        -0.1500
     29 H17         2.1650   -2.8620   -1.4850 H         1 LIG         0.1500
     30 C12         3.6980   -1.3570   -1.6370 C.ar      1 LIG        -0.1500
     31 H18         3.9450   -1.6000   -2.6610 H         1 LIG         0.1500
     32 C13         4.3940   -0.3340   -0.9710 C.ar      1 LIG        -0.1500
     33 H19         5.1750    0.2110   -1.4830 H         1 LIG         0.1500
     34 C14         4.0820   -0.0270    0.3640 C.ar      1 LIG        -0.1500
     35 H20         4.6250    0.7530    0.8800 H         1 LIG         0.1500
     36 C15         3.0660   -0.7330    1.0310 C.ar      1 LIG        -0.1500
     37 H21         2.8310   -0.4880    2.0570 H         1 LIG         0.1500
     38 C16        -3.1800   -1.6240   -0.1730 C.ar      1 LIG         0.2170
     39 C17        -3.3700   -3.1310   -0.1730 C.3       1 LIG        -0.0960
     40 H22        -2.6150   -3.5780    0.4760 H         1 LIG         0.0800
     41 H23        -3.2420   -3.4900   -1.1960 H         1 LIG         0.0800
     42 H24        -4.3620   -3.3930    0.1980 H         1 LIG         0.0800
     43 N2         -4.3280   -0.8870   -0.1020 N.ar      1 LIG        -0.1790
     44 H25        -5.2480   -1.3340   -0.0510 H         1 LIG         0.4570
     45 C18        -4.2920    0.4520   -0.1010 C.ar      1 LIG         0.7710
     46 N3         -5.4570    1.0820   -0.0290 N.pl3     1 LIG        -0.9000
     47 H26        -6.3770    0.6280    0.0260 H         1 LIG         0.4000
     48 H27        -5.4200    2.1150   -0.0280 H         1 LIG         0.4000
     49 N4         -3.1760    1.1440   -0.1650 N.ar      1 LIG        -0.6200
@<TRIPOS>BOND
  1   1   2  1   
  2   1   3  1   
  3   1  16  1   
  4   3   4  1   
  5   3   5  1   
  6   3   6  1   
  7   6   7  1   
  8   6   8  1   
  9   6   9  1   
 10   9  10  1   
 11   9  11  1   
 12   9  12  1   
 13  12  13  1   
 14  12  14  1   
 15  12  15  1   
 16  16  17  ar  
 17  16  49  ar  
 18  17  18  1   
 19  17  38  ar  
 20  18  19  1   
 21  18  20  1   
 22  18  21  1   
 23  21  22  1   
 24  21  23  1   
 25  21  24  1   
 26  24  25  1   
 27  24  26  1   
 28  24  27  1   
 29  27  28  ar  
 30  27  36  ar  
 31  28  29  1   
 32  28  30  ar  
 33  30  31  1   
 34  30  32  ar  
 35  32  33  1   
 36  32  34  ar  
 37  34  35  1   
 38  34  36  ar  
 39  36  37  1   
 40  38  39  1   
 41  38  43  ar  
 42  39  40  1   
 43  39  41  1   
 44  39  42  1   
 45  43  44  1   
 46  43  45  ar  
 47  45  46  1   
 48  45  49  ar  
 49  46  47  1   
 50  46  48  1   
@<TRIPOS>SUBSTRUCTURE
  1 ****   1 GROUP 4 **** **** 0

# MOE 2018.01 (io_trps.svl 2018.01)

@<TRIPOS>MOLECULE
CHEMBL1082642
44 47 1 0 0 
SMALL
USER_CHARGES


@<TRIPOS>ATOM
      1 N1         -2.9530    3.5160    0.9550 N.pl3     1 LIG        -0.9000
      2 H1         -3.8600    3.8750    1.2920 H         1 LIG         0.4000
      3 H2         -2.1480    4.1760    0.9550 H         1 LIG         0.4000
      4 C1         -2.7200    2.2740    0.5250 C.ar      1 LIG         0.4610
      5 N2         -3.7700    1.4510    0.5290 N.ar      1 LIG        -0.1790
      6 H3         -4.6710    1.8300    0.8420 H         1 LIG         0.4570
      7 C2         -3.6690    0.0980    0.1410 C.ar      1 LIG         0.3610
      8 C3         -2.4190   -0.4270   -0.2740 C.ar      1 LIG         0.0000
      9 C4         -1.3170    0.5070   -0.3610 C.ar      1 LIG        -0.1520
     10 N3         -0.0340    0.4350   -0.8110 N.pl3     1 LIG         0.0480
     11 C5          0.6250   -0.6800   -1.5160 C.3       1 LIG         0.2390
     12 H4         -0.0960   -1.3760   -1.9060 H         1 LIG         0.0800
     13 H5          1.2120   -0.2770   -2.3290 H         1 LIG         0.0800
     14 C6          1.5490   -1.3700   -0.5240 C.ar      1 LIG        -0.1440
     15 C7          2.8880   -1.5700   -0.8650 C.ar      1 LIG        -0.1500
     16 H6          3.2570   -1.2510   -1.8060 H         1 LIG         0.1500
     17 C8          3.7590   -2.1830    0.0300 C.ar      1 LIG        -0.1500
     18 H7          4.7760   -2.3250   -0.2330 H         1 LIG         0.1500
     19 C9          3.2970   -2.6090    1.2700 C.ar      1 LIG        -0.1500
     20 H8          3.9620   -3.0760    1.9520 H         1 LIG         0.1500
     21 C10         1.9640   -2.4220    1.6150 C.ar      1 LIG        -0.1500
     22 H9          1.6130   -2.7480    2.5610 H         1 LIG         0.1500
     23 C11         1.0920   -1.8060    0.7230 C.ar      1 LIG        -0.1500
     24 H10         0.0810   -1.6670    1.0070 H         1 LIG         0.1500
     25 C12         0.5630    1.6570   -0.5630 C.2       1 LIG         0.0060
     26 C13         2.0220    1.9770   -0.8480 C.3       1 LIG         0.0200
     27 H11         2.4410    1.3410   -1.6260 H         1 LIG         0.0800
     28 H12         2.1060    3.0180   -1.1620 H         1 LIG         0.0800
     29 C14         2.7770    1.7820    0.4810 C.3       1 LIG         0.0400
     30 H13         2.6260    0.7810    0.8580 H         1 LIG         0.0800
     31 H14         2.4740    2.5460    1.1830 H         1 LIG         0.0800
     32 C15         4.2120    1.9530    0.1590 C.1       1 LIG        -0.2000
     33 C16         5.3680    2.0870   -0.1000 C.1       1 LIG        -0.1770
     34 H15         6.3740    2.2030   -0.3230 H         1 LIG         0.1770
     35 N4         -0.2780    2.4890   -0.0410 N.2       1 LIG        -0.5650
     36 C17        -1.4510    1.8020    0.0670 C.ar      1 LIG         0.2270
     37 C18        -2.3590   -1.8140   -0.5310 C.ar      1 LIG        -0.1500
     38 H16        -1.4460   -2.2870   -0.7690 H         1 LIG         0.1500
     39 C19        -3.4990   -2.5980   -0.4530 C.ar      1 LIG        -0.1500
     40 H17        -3.4410   -3.6390   -0.6610 H         1 LIG         0.1500
     41 C20        -4.7330   -2.0400   -0.0960 C.ar      1 LIG        -0.1500
     42 H18        -5.5940   -2.6610   -0.0500 H         1 LIG         0.1500
     43 C21        -4.8230   -0.6940    0.2090 C.ar      1 LIG        -0.1500
     44 H19        -5.7550   -0.2790    0.4950 H         1 LIG         0.1500
@<TRIPOS>BOND
  1   1   2  1   
  2   1   3  1   
  3   1   4  1   
  4   4   5  ar  
  5   4  36  ar  
  6   5   6  1   
  7   5   7  ar  
  8   7   8  ar  
  9   7  43  ar  
 10   8   9  ar  
 11   8  37  ar  
 12   9  10  1   
 13   9  36  ar  
 14  10  11  1   
 15  10  25  1   
 16  11  12  1   
 17  11  13  1   
 18  11  14  1   
 19  14  15  ar  
 20  14  23  ar  
 21  15  16  1   
 22  15  17  ar  
 23  17  18  1   
 24  17  19  ar  
 25  19  20  1   
 26  19  21  ar  
 27  21  22  1   
 28  21  23  ar  
 29  23  24  1   
 30  25  26  1   
 31  25  35  2   
 32  26  27  1   
 33  26  28  1   
 34  26  29  1   
 35  29  30  1   
 36  29  31  1   
 37  29  32  1   
 38  32  33  3   
 39  33  34  1   
 40  35  36  1   
 41  37  38  1   
 42  37  39  ar  
 43  39  40  1   
 44  39  41  ar  
 45  41  42  1   
 46  41  43  ar  
 47  43  44  1   
@<TRIPOS>SUBSTRUCTURE
  1 ****  10 GROUP 4 **** **** 0

# MOE 2018.01 (io_trps.svl 2018.01)

@<TRIPOS>MOLECULE
CHEMBL4077873
44 45 1 0 0 
SMALL
USER_CHARGES


@<TRIPOS>ATOM
      1 N1         -0.1080    0.3700    0.1900 N.pl3     1 LIG        -0.8690
      2 H1         -0.3570   -0.6360    0.1540 H         1 LIG         0.4000
      3 C1         -1.2100    1.2970    0.4640 C.3       1 LIG         0.2090
      4 H2         -2.0070    0.7750    0.9950 H         1 LIG         0.0800
      5 H3         -0.8870    2.1560    1.0560 H         1 LIG         0.0800
      6 C2         -1.6960    1.7550   -0.9150 C.3       1 LIG        -0.1600
      7 H4         -0.8600    2.2230   -1.4380 H         1 LIG         0.0800
      8 H5         -2.0160    0.8890   -1.4950 H         1 LIG         0.0800
      9 C3         -2.8480    2.7710   -0.8410 C.3       1 LIG        -0.1600
     10 H6         -2.5340    3.6380   -0.2560 H         1 LIG         0.0800
     11 H7         -3.0720    3.1130   -1.8530 H         1 LIG         0.0800
     12 C4         -4.1270    2.1820   -0.2320 C.3       1 LIG        -0.2400
     13 H8         -3.9730    1.9290    0.8170 H         1 LIG         0.0800
     14 H9         -4.4280    1.2900   -0.7820 H         1 LIG         0.0800
     15 H10        -4.9290    2.9190   -0.2940 H         1 LIG         0.0800
     16 C5          1.1960    0.7040    0.1560 C.ar      1 LIG         0.4100
     17 N2          1.5420    1.9430    0.4570 N.ar      1 LIG        -0.6200
     18 C6          2.8390    2.2510    0.4920 C.ar      1 LIG         0.7710
     19 N3          3.1940    3.4940    0.7950 N.pl3     1 LIG        -0.9000
     20 H11         4.1600    3.8410    0.8480 H         1 LIG         0.4000
     21 H12         2.4230    4.1560    0.9870 H         1 LIG         0.4000
     22 N4          3.8300    1.3790    0.2430 N.ar      1 LIG        -0.1250
     23 H13         4.7960    1.7030    0.3080 H         1 LIG         0.4570
     24 C7          3.5150    0.0830   -0.1070 C.ar      1 LIG         0.3070
     25 C8          2.1890   -0.2480   -0.1690 C.ar      1 LIG        -0.1520
     26 N5          2.1530   -1.5810   -0.5980 N.pl3     1 LIG         0.0480
     27 C9          0.9740   -2.3950   -0.9190 C.3       1 LIG         0.2340
     28 H14         0.3480   -1.8330   -1.5990 H         1 LIG         0.0800
     29 H15         1.2920   -3.3440   -1.3300 H         1 LIG         0.0800
     30 C10         0.2520   -2.6490    0.3930 C.2       1 LIG        -0.2880
     31 H16         0.8950   -2.8230    1.2210 H         1 LIG         0.1500
     32 C11        -1.0830   -2.6740    0.5480 C.2       1 LIG        -0.2760
     33 C12        -1.7040   -2.9050    1.9130 C.3       1 LIG        -0.1020
     34 H17        -2.3740   -2.0800    2.1120 H         1 LIG         0.0800
     35 H18        -0.9180   -2.9450    2.6540 H         1 LIG         0.0800
     36 H19        -2.2390   -3.8450    1.8730 H         1 LIG         0.0800
     37 C13        -2.0790   -2.4770   -0.5850 C.3       1 LIG        -0.1020
     38 H20        -2.3460   -1.4300   -0.6110 H         1 LIG         0.0800
     39 H21        -2.9480   -3.0850   -0.3700 H         1 LIG         0.0800
     40 H22        -1.6380   -2.8010   -1.5160 H         1 LIG         0.0800
     41 C14         3.4500   -2.0280   -0.7540 C.2       1 LIG        -0.3020
     42 H23         3.6580   -3.0210   -1.0700 H         1 LIG         0.1500
     43 C15         4.3100   -1.0070   -0.4540 C.2       1 LIG        -0.1500
     44 H24         5.3690   -1.0510   -0.4890 H         1 LIG         0.1500
@<TRIPOS>BOND
  1   1   2  1   
  2   1   3  1   
  3   1  16  1   
  4   3   4  1   
  5   3   5  1   
  6   3   6  1   
  7   6   7  1   
  8   6   8  1   
  9   6   9  1   
 10   9  10  1   
 11   9  11  1   
 12   9  12  1   
 13  12  13  1   
 14  12  14  1   
 15  12  15  1   
 16  16  17  ar  
 17  16  25  ar  
 18  17  18  ar  
 19  18  19  1   
 20  18  22  ar  
 21  19  20  1   
 22  19  21  1   
 23  22  23  1   
 24  22  24  ar  
 25  24  25  ar  
 26  24  43  1   
 27  25  26  1   
 28  26  27  1   
 29  26  41  1   
 30  27  28  1   
 31  27  29  1   
 32  27  30  1   
 33  30  31  1   
 34  30  32  2   
 35  32  33  1   
 36  32  37  1   
 37  33  34  1   
 38  33  35  1   
 39  33  36  1   
 40  37  38  1   
 41  37  39  1   
 42  37  40  1   
 43  41  42  1   
 44  41  43  2   
 45  43  44  1   
@<TRIPOS>SUBSTRUCTURE
  1 ****  16 GROUP 4 **** **** 0

# MOE 2018.01 (io_trps.svl 2018.01)

@<TRIPOS>MOLECULE
CHEMBL4071479
58 59 1 0 0 
SMALL
USER_CHARGES


@<TRIPOS>ATOM
      1 N1         -1.6730    1.1710   -0.1420 N.pl3     1 LIG        -0.8690
      2 H1         -1.6060    1.5550    0.8120 H         1 LIG         0.4000
      3 C1         -1.7500    2.2300   -1.1610 C.3       1 LIG         0.2090
      4 H2         -2.7340    2.7050   -1.1550 H         1 LIG         0.0800
      5 H3         -1.5530    1.8330   -2.1600 H         1 LIG         0.0800
      6 C2         -0.6600    3.2450   -0.7870 C.3       1 LIG        -0.1600
      7 H4         -0.6870    4.0400   -1.5340 H         1 LIG         0.0800
      8 H5          0.3120    2.7610   -0.8700 H         1 LIG         0.0800
      9 C3         -0.7760    3.8970    0.6060 C.3       1 LIG        -0.1600
     10 H6          0.0150    4.6440    0.7030 H         1 LIG         0.0800
     11 H7         -0.6250    3.1550    1.3910 H         1 LIG         0.0800
     12 C4         -2.1230    4.5960    0.8260 C.3       1 LIG        -0.2400
     13 H8         -2.3000    5.3280    0.0350 H         1 LIG         0.0800
     14 H9         -2.1110    5.1190    1.7840 H         1 LIG         0.0800
     15 H10        -2.9400    3.8730    0.8380 H         1 LIG         0.0800
     16 C5         -2.3070   -0.0150   -0.2740 C.ar      1 LIG         0.4100
     17 C6         -2.2860   -0.9690    0.7830 C.ar      1 LIG        -0.1440
     18 C7         -1.4220   -0.7410    2.0310 C.3       1 LIG        -0.0170
     19 H11        -1.4040    0.3120    2.3200 H         1 LIG         0.0800
     20 H12        -1.8440   -1.2810    2.8810 H         1 LIG         0.0800
     21 C8          0.0100   -1.2670    1.7590 C.3       1 LIG        -0.1600
     22 H13         0.5370   -1.3150    2.7140 H         1 LIG         0.0800
     23 H14        -0.0330   -2.2650    1.3220 H         1 LIG         0.0800
     24 C9          0.7320   -0.2720    0.8260 C.3       1 LIG         0.3430
     25 H15         0.6760    0.7090    1.2860 H         1 LIG         0.0800
     26 H16         0.2630   -0.2830   -0.1530 H         1 LIG         0.0800
     27 N2          2.1460   -0.7180    0.7430 N.4       1 LIG        -0.9590
     28 H17         2.4340   -1.1030    1.6410 H         1 LIG         0.4500
     29 C10         2.9610    0.4930    0.3710 C.3       1 LIG         0.3430
     30 H18         2.8800    1.2420    1.1520 H         1 LIG         0.0800
     31 H19         2.6360    0.8870   -0.5850 H         1 LIG         0.0800
     32 C11         4.4730    0.0890    0.2560 C.3       1 LIG         0.3430
     33 H20         5.0350    0.9740   -0.0210 H         1 LIG         0.0800
     34 H21         4.7900   -0.2820    1.2240 H         1 LIG         0.0800
     35 N3          4.6750   -0.9890   -0.7920 N.4       1 LIG        -0.9590
     36 H22         5.6450   -1.3110   -0.7420 H         1 LIG         0.4500
     37 C12         4.4470   -0.4460   -2.1670 C.3       1 LIG         0.2630
     38 H23         5.1420    0.3720   -2.3300 H         1 LIG         0.0800
     39 H24         4.6410   -1.2370   -2.8840 H         1 LIG         0.0800
     40 H25         3.4260   -0.0960   -2.2580 H         1 LIG         0.0800
     41 C13         3.7640   -2.1710   -0.5170 C.3       1 LIG         0.3430
     42 H26         3.8260   -2.8750   -1.3400 H         1 LIG         0.0800
     43 H27         4.0530   -2.6410    0.4160 H         1 LIG         0.0800
     44 C14         2.2670   -1.7190   -0.3790 C.3       1 LIG         0.3430
     45 H28         1.6790   -2.6010   -0.1480 H         1 LIG         0.0800
     46 H29         1.9550   -1.2730   -1.3160 H         1 LIG         0.0800
     47 C15        -3.0670   -2.0940    0.6330 C.ar      1 LIG         0.2170
     48 C16        -3.2460   -3.2230    1.6340 C.3       1 LIG        -0.0960
     49 H30        -3.9030   -2.8690    2.4310 H         1 LIG         0.0800
     50 H31        -2.2740   -3.4930    2.0460 H         1 LIG         0.0800
     51 H32        -3.6860   -4.0980    1.1540 H         1 LIG         0.0800
     52 N4         -3.7750   -2.2290   -0.5300 N.ar      1 LIG        -0.1790
     53 H33        -4.3970   -3.0290   -0.6910 H         1 LIG         0.4570
     54 C17        -3.6740   -1.3210   -1.5100 C.ar      1 LIG         0.7710
     55 N5         -4.3520   -1.5620   -2.6220 N.pl3     1 LIG        -0.9000
     56 H34        -4.9720   -2.3680   -2.7770 H         1 LIG         0.4000
     57 H35        -4.3010   -0.8440   -3.3650 H         1 LIG         0.4000
     58 N6         -2.9410   -0.2310   -1.4060 N.ar      1 LIG        -0.6200
@<TRIPOS>BOND
  1   1   2  1   
  2   1   3  1   
  3   1  16  1   
  4   3   4  1   
  5   3   5  1   
  6   3   6  1   
  7   6   7  1   
  8   6   8  1   
  9   6   9  1   
 10   9  10  1   
 11   9  11  1   
 12   9  12  1   
 13  12  13  1   
 14  12  14  1   
 15  12  15  1   
 16  16  17  ar  
 17  16  58  ar  
 18  17  18  1   
 19  17  47  ar  
 20  18  19  1   
 21  18  20  1   
 22  18  21  1   
 23  21  22  1   
 24  21  23  1   
 25  21  24  1   
 26  24  25  1   
 27  24  26  1   
 28  24  27  1   
 29  27  28  1   
 30  27  29  1   
 31  27  44  1   
 32  29  30  1   
 33  29  31  1   
 34  29  32  1   
 35  32  33  1   
 36  32  34  1   
 37  32  35  1   
 38  35  36  1   
 39  35  37  1   
 40  35  41  1   
 41  37  38  1   
 42  37  39  1   
 43  37  40  1   
 44  41  42  1   
 45  41  43  1   
 46  41  44  1   
 47  44  45  1   
 48  44  46  1   
 49  47  48  1   
 50  47  52  ar  
 51  48  49  1   
 52  48  50  1   
 53  48  51  1   
 54  52  53  1   
 55  52  54  ar  
 56  54  55  1   
 57  54  58  ar  
 58  55  56  1   
 59  55  57  1   
@<TRIPOS>SUBSTRUCTURE
  1 ****  24 GROUP 4 **** **** 0

# MOE 2018.01 (io_trps.svl 2018.01)

@<TRIPOS>MOLECULE
CHEMBL4644843
47 49 1 0 0 
SMALL
USER_CHARGES


@<TRIPOS>ATOM
      1 CL1        -7.0410    0.3370   -0.0230 Cl        1 LIG        -0.1770
      2 C1         -5.3150    0.3590    0.0860 C.ar      1 LIG         0.1770
      3 C2         -4.6250    1.5430   -0.1210 C.ar      1 LIG        -0.1500
      4 H1         -5.1620    2.4280   -0.3450 H         1 LIG         0.1500
      5 C3         -3.2310    1.5360   -0.0280 C.ar      1 LIG         0.3610
      6 N1         -2.5500    2.7560   -0.2410 N.ar      1 LIG        -0.1790
      7 H2         -3.0740    3.6100   -0.4580 H         1 LIG         0.4570
      8 C4         -1.2220    2.8520   -0.1690 C.ar      1 LIG         0.4610
      9 N2         -0.7150    4.0670   -0.3900 N.pl3     1 LIG        -0.9000
     10 H3         -1.2580    4.9170   -0.6080 H         1 LIG         0.4000
     11 H4          0.3210    4.1620   -0.3370 H         1 LIG         0.4000
     12 C5         -0.4430    1.6960    0.1290 C.ar      1 LIG         0.2270
     13 N3          0.9100    1.6030    0.2490 N.2       1 LIG        -0.5650
     14 C6          1.1590    0.3620    0.5120 C.2       1 LIG         0.0060
     15 C7          2.5600   -0.2060    0.7440 C.3       1 LIG         0.0200
     16 H5          2.9720    0.2150    1.6590 H         1 LIG         0.0800
     17 H6          2.5500   -1.2860    0.8490 H         1 LIG         0.0800
     18 C8          3.4540    0.1330   -0.4700 C.3       1 LIG        -0.1600
     19 H7          4.2440   -0.6170   -0.5320 H         1 LIG         0.0800
     20 H8          2.8610    0.0490   -1.3820 H         1 LIG         0.0800
     21 C9          4.1240    1.5200   -0.4470 C.3       1 LIG        -0.1600
     22 H9          4.6070    1.6810   -1.4130 H         1 LIG         0.0800
     23 H10         3.3710    2.2990   -0.3230 H         1 LIG         0.0800
     24 C10         5.1870    1.6630    0.6500 C.3       1 LIG        -0.2400
     25 H11         5.9270    0.8660    0.5630 H         1 LIG         0.0800
     26 H12         4.7280    1.6270    1.6380 H         1 LIG         0.0800
     27 H13         5.6910    2.6240    0.5410 H         1 LIG         0.0800
     28 N4         -0.0200   -0.3710    0.5810 N.pl3     1 LIG         0.0480
     29 C11        -0.1190   -1.8110    0.8920 C.3       1 LIG         0.0960
     30 H14         0.7910   -2.1780    1.3380 H         1 LIG         0.0800
     31 H15        -0.9340   -1.9560    1.5830 H         1 LIG         0.0800
     32 C12        -0.3860   -2.5790   -0.4310 C.3       1 LIG        -0.0800
     33 H16        -1.2170   -2.1550   -0.9980 H         1 LIG         0.0800
     34 C13        -0.7290   -4.0310   -0.0680 C.3       1 LIG        -0.2400
     35 H17         0.0970   -4.4960    0.4720 H         1 LIG         0.0800
     36 H18        -0.9190   -4.6040   -0.9770 H         1 LIG         0.0800
     37 H19        -1.6250   -4.0660    0.5530 H         1 LIG         0.0800
     38 C14         0.8660   -2.5700   -1.3240 C.3       1 LIG        -0.2400
     39 H20         1.7270   -2.9750   -0.7890 H         1 LIG         0.0800
     40 H21         1.0880   -1.5560   -1.6570 H         1 LIG         0.0800
     41 H22         0.6900   -3.1810   -2.2110 H         1 LIG         0.0800
     42 C15        -1.0540    0.4860    0.3360 C.ar      1 LIG        -0.1520
     43 C16        -2.4950    0.3570    0.2700 C.ar      1 LIG         0.0000
     44 C17        -3.2390   -0.8270    0.4740 C.ar      1 LIG        -0.1500
     45 H23        -2.7590   -1.7400    0.6990 H         1 LIG         0.1500
     46 C18        -4.6200   -0.8240    0.3830 C.ar      1 LIG        -0.1500
     47 H24        -5.1720   -1.7170    0.5370 H         1 LIG         0.1500
@<TRIPOS>BOND
  1   1   2  1   
  2   2   3  ar  
  3   2  46  ar  
  4   3   4  1   
  5   3   5  ar  
  6   5   6  ar  
  7   5  43  ar  
  8   6   7  1   
  9   6   8  ar  
 10   8   9  1   
 11   8  12  ar  
 12   9  10  1   
 13   9  11  1   
 14  12  13  1   
 15  12  42  ar  
 16  13  14  2   
 17  14  15  1   
 18  14  28  1   
 19  15  16  1   
 20  15  17  1   
 21  15  18  1   
 22  18  19  1   
 23  18  20  1   
 24  18  21  1   
 25  21  22  1   
 26  21  23  1   
 27  21  24  1   
 28  24  25  1   
 29  24  26  1   
 30  24  27  1   
 31  28  29  1   
 32  28  42  1   
 33  29  30  1   
 34  29  31  1   
 35  29  32  1   
 36  32  33  1   
 37  32  34  1   
 38  32  38  1   
 39  34  35  1   
 40  34  36  1   
 41  34  37  1   
 42  38  39  1   
 43  38  40  1   
 44  38  41  1   
 45  42  43  ar  
 46  43  44  ar  
 47  44  45  1   
 48  44  46  ar  
 49  46  47  1   
@<TRIPOS>SUBSTRUCTURE
  1 ****  42 GROUP 4 **** **** 0

# MOE 2018.01 (io_trps.svl 2018.01)

@<TRIPOS>MOLECULE
CHEMBL1082982
48 51 1 0 0 
SMALL
USER_CHARGES


@<TRIPOS>ATOM
      1 N1         -2.1650    2.3280   -0.2650 N.4       1 LIG        -0.9060
      2 H1         -1.3990    2.9950   -0.2010 H         1 LIG         0.4500
      3 H2         -2.1990    2.0120   -1.2250 H         1 LIG         0.4500
      4 C1         -3.4560    2.9030    0.1730 C.3       1 LIG         0.3430
      5 H3         -3.4170    3.1960    1.2260 H         1 LIG         0.0800
      6 H4         -3.6700    3.8010   -0.4150 H         1 LIG         0.0800
      7 C2         -4.6030    1.9190   -0.0440 C.3       1 LIG        -0.2400
      8 H5         -4.5070    1.0470    0.6030 H         1 LIG         0.0800
      9 H6         -4.6370    1.6010   -1.0870 H         1 LIG         0.0800
     10 H7         -5.5450    2.4170    0.1940 H         1 LIG         0.0800
     11 C3         -1.7890    1.2130    0.6090 C.3       1 LIG         0.5230
     12 H8         -1.9670    1.4590    1.6490 H         1 LIG         0.0800
     13 H9         -2.2980    0.3090    0.2960 H         1 LIG         0.0800
     14 C4         -0.2810    1.0800    0.3970 C.2       1 LIG         0.0060
     15 N2          0.4220   -0.0870    0.6410 N.pl3     1 LIG         0.0480
     16 C5         -0.1430   -1.2720    1.3270 C.3       1 LIG         0.2390
     17 H10         0.5900   -2.0430    1.4830 H         1 LIG         0.0800
     18 H11        -0.5500   -0.9490    2.2760 H         1 LIG         0.0800
     19 C6         -1.2710   -1.8040    0.4590 C.ar      1 LIG        -0.1440
     20 C7         -2.5080   -2.0870    1.0410 C.ar      1 LIG        -0.1500
     21 H12        -2.6530   -1.9720    2.0860 H         1 LIG         0.1500
     22 C8         -3.5660   -2.5380    0.2590 C.ar      1 LIG        -0.1500
     23 H13        -4.5040   -2.7570    0.7050 H         1 LIG         0.1500
     24 C9         -3.3930   -2.7180   -1.1090 C.ar      1 LIG        -0.1500
     25 H14        -4.1990   -3.0680   -1.7050 H         1 LIG         0.1500
     26 C10        -2.1580   -2.4580   -1.6920 C.ar      1 LIG        -0.1500
     27 H15        -2.0240   -2.6130   -2.7340 H         1 LIG         0.1500
     28 C11        -1.0990   -2.0070   -0.9120 C.ar      1 LIG        -0.1500
     29 H16        -0.1610   -1.8260   -1.3740 H         1 LIG         0.1500
     30 C12         1.7110    0.1280    0.2610 C.ar      1 LIG        -0.1520
     31 C13         1.7600    1.4590   -0.0660 C.ar      1 LIG         0.2270
     32 C14         3.0220    2.0670   -0.3660 C.ar      1 LIG         0.4610
     33 N3          3.1910    3.3550   -0.6750 N.pl3     1 LIG        -0.9000
     34 H17         4.1000    3.7980   -0.8930 H         1 LIG         0.4000
     35 H18         2.3540    3.9680   -0.7040 H         1 LIG         0.4000
     36 N4          4.1390    1.3340   -0.3310 N.ar      1 LIG        -0.1790
     37 H19         5.0310    1.8070   -0.5190 H         1 LIG         0.4570
     38 C15         4.1210   -0.0540   -0.0790 C.ar      1 LIG         0.3610
     39 C16         2.8870   -0.7100    0.1600 C.ar      1 LIG         0.0000
     40 C17         2.9120   -2.1190    0.2240 C.ar      1 LIG        -0.1500
     41 H20         2.0190   -2.6810    0.2860 H         1 LIG         0.1500
     42 C18         4.1130   -2.8070    0.1720 C.ar      1 LIG        -0.1500
     43 H21         4.1200   -3.8680    0.2390 H         1 LIG         0.1500
     44 C19         5.3270   -2.1250    0.0200 C.ar      1 LIG        -0.1500
     45 H22         6.2360   -2.6750   -0.0060 H         1 LIG         0.1500
     46 C20         5.3370   -0.7490   -0.1160 C.ar      1 LIG        -0.1500
     47 H23         6.2560   -0.2380   -0.2550 H         1 LIG         0.1500
     48 N5          0.5120    2.0270   -0.0140 N.2       1 LIG        -0.5650
@<TRIPOS>BOND
  1   1   2  1   
  2   1   3  1   
  3   1   4  1   
  4   1  11  1   
  5   4   5  1   
  6   4   6  1   
  7   4   7  1   
  8   7   8  1   
  9   7   9  1   
 10   7  10  1   
 11  11  12  1   
 12  11  13  1   
 13  11  14  1   
 14  14  15  1   
 15  14  48  2   
 16  15  16  1   
 17  15  30  1   
 18  16  17  1   
 19  16  18  1   
 20  16  19  1   
 21  19  20  ar  
 22  19  28  ar  
 23  20  21  1   
 24  20  22  ar  
 25  22  23  1   
 26  22  24  ar  
 27  24  25  1   
 28  24  26  ar  
 29  26  27  1   
 30  26  28  ar  
 31  28  29  1   
 32  30  31  ar  
 33  30  39  ar  
 34  31  32  ar  
 35  31  48  1   
 36  32  33  1   
 37  32  36  ar  
 38  33  34  1   
 39  33  35  1   
 40  36  37  1   
 41  36  38  ar  
 42  38  39  ar  
 43  38  46  ar  
 44  39  40  ar  
 45  40  41  1   
 46  40  42  ar  
 47  42  43  1   
 48  42  44  ar  
 49  44  45  1   
 50  44  46  ar  
 51  46  47  1   
@<TRIPOS>SUBSTRUCTURE
  1 ****  15 GROUP 4 **** **** 0

# MOE 2018.01 (io_trps.svl 2018.01)

@<TRIPOS>MOLECULE
CHEMBL4074552
46 47 1 0 0 
SMALL
USER_CHARGES


@<TRIPOS>ATOM
      1 N1         -1.7530    0.8880   -0.1670 N.pl3     1 LIG        -0.8690
      2 H1         -2.4520    1.4250    0.3700 H         1 LIG         0.4000
      3 C1         -0.9660    1.7080   -1.0810 C.3       1 LIG         0.2090
      4 H2          0.1040    1.6130   -0.8910 H         1 LIG         0.0800
      5 H3         -1.1990    1.4520   -2.1170 H         1 LIG         0.0800
      6 C2         -1.4060    3.1520   -0.8130 C.3       1 LIG        -0.1600
      7 H4         -0.9600    3.7850   -1.5810 H         1 LIG         0.0800
      8 H5         -2.4910    3.2250   -0.9100 H         1 LIG         0.0800
      9 C3         -0.9680    3.6770    0.5670 C.3       1 LIG        -0.1600
     10 H6         -1.4180    3.0750    1.3590 H         1 LIG         0.0800
     11 H7          0.1180    3.6100    0.6570 H         1 LIG         0.0800
     12 C4         -1.3980    5.1360    0.7470 C.3       1 LIG        -0.2400
     13 H8         -2.4830    5.2210    0.6750 H         1 LIG         0.0800
     14 H9         -0.9360    5.7620   -0.0170 H         1 LIG         0.0800
     15 H10        -1.0830    5.4910    1.7300 H         1 LIG         0.0800
     16 C5         -1.8770   -0.4420   -0.0320 C.ar      1 LIG         0.4100
     17 C6         -1.0330   -1.4710   -0.5700 C.ar      1 LIG        -0.1440
     18 C7          0.2280   -1.1870   -1.3880 C.3       1 LIG        -0.0170
     19 H11         0.4960   -2.0410   -2.0100 H         1 LIG         0.0800
     20 H12         0.0990   -0.3490   -2.0660 H         1 LIG         0.0800
     21 C8          1.3460   -0.9270   -0.3630 C.3       1 LIG        -0.1600
     22 H13         1.5030   -1.8170    0.2500 H         1 LIG         0.0800
     23 H14         1.0920   -0.0900    0.2900 H         1 LIG         0.0800
     24 C9          2.6360   -0.6090   -1.1500 C.3       1 LIG         0.0960
     25 H15         2.5530    0.3600   -1.6210 H         1 LIG         0.0800
     26 H16         2.8500   -1.4120   -1.8420 H         1 LIG         0.0800
     27 N2          3.7060   -0.5750   -0.1630 N.pl3     1 LIG         0.3140
     28 N3          4.3280   -1.7090    0.2520 N.2       1 LIG        -0.7070
     29 C10         5.1940   -1.3090    1.1440 C.2       1 LIG         0.1390
     30 H17         5.8470   -1.9670    1.6590 H         1 LIG         0.1500
     31 C11         5.1330    0.0690    1.3130 C.2       1 LIG        -0.1500
     32 H18         5.7200    0.6520    1.9740 H         1 LIG         0.1500
     33 C12         4.1760    0.5200    0.4730 C.2       1 LIG        -0.3020
     34 H19         3.8070    1.4950    0.2870 H         1 LIG         0.1500
     35 C13        -1.3750   -2.7730   -0.2800 C.ar      1 LIG         0.2170
     36 C14        -0.6400   -4.0320   -0.7130 C.3       1 LIG        -0.0960
     37 H20        -0.7460   -4.1340   -1.7940 H         1 LIG         0.0800
     38 H21        -1.0490   -4.9130   -0.2160 H         1 LIG         0.0800
     39 H22         0.4130   -3.9280   -0.4490 H         1 LIG         0.0800
     40 N4         -2.4870   -2.9920    0.4810 N.ar      1 LIG        -0.1790
     41 H23        -2.7890   -3.9400    0.7230 H         1 LIG         0.4570
     42 C15        -3.2160   -1.9750    0.9470 C.ar      1 LIG         0.7710
     43 N5         -4.2770   -2.2820    1.6810 N.pl3     1 LIG        -0.9000
     44 H24        -4.5820   -3.2360    1.9150 H         1 LIG         0.4000
     45 H25        -4.8380   -1.4890    2.0360 H         1 LIG         0.4000
     46 N6         -2.9260   -0.7160    0.7080 N.ar      1 LIG        -0.6200
@<TRIPOS>BOND
  1   1   2  1   
  2   1   3  1   
  3   1  16  1   
  4   3   4  1   
  5   3   5  1   
  6   3   6  1   
  7   6   7  1   
  8   6   8  1   
  9   6   9  1   
 10   9  10  1   
 11   9  11  1   
 12   9  12  1   
 13  12  13  1   
 14  12  14  1   
 15  12  15  1   
 16  16  17  ar  
 17  16  46  ar  
 18  17  18  1   
 19  17  35  ar  
 20  18  19  1   
 21  18  20  1   
 22  18  21  1   
 23  21  22  1   
 24  21  23  1   
 25  21  24  1   
 26  24  25  1   
 27  24  26  1   
 28  24  27  1   
 29  27  28  1   
 30  27  33  1   
 31  28  29  2   
 32  29  30  1   
 33  29  31  1   
 34  31  32  1   
 35  31  33  2   
 36  33  34  1   
 37  35  36  1   
 38  35  40  ar  
 39  36  37  1   
 40  36  38  1   
 41  36  39  1   
 42  40  41  1   
 43  40  42  ar  
 44  42  43  1   
 45  42  46  ar  
 46  43  44  1   
 47  43  45  1   
@<TRIPOS>SUBSTRUCTURE
  1 ****  21 GROUP 4 **** **** 0

# MOE 2018.01 (io_trps.svl 2018.01)

@<TRIPOS>MOLECULE
CHEMBL3221827
40 42 1 0 0 
SMALL
USER_CHARGES


@<TRIPOS>ATOM
      1 O1         -2.4480    3.9120   -0.8100 O.2       1 LIG        -0.5700
      2 C1         -1.5320    3.1480   -0.5400 C.2       1 LIG         0.6900
      3 N1         -1.4710    1.7920   -0.7840 N.am      1 LIG        -0.4770
      4 C2         -2.5940    1.0580   -1.3800 C.3       1 LIG         0.2840
      5 H1         -3.4730    1.6890   -1.4240 H         1 LIG         0.0800
      6 H2         -2.3030    0.6910   -2.3540 H         1 LIG         0.0800
      7 C3         -2.8900   -0.1110   -0.4530 C.ar      1 LIG        -0.1440
      8 C4         -3.1800    0.1060    0.8950 C.ar      1 LIG        -0.1500
      9 H3         -3.2110    1.0940    1.2800 H         1 LIG         0.1500
     10 C5         -3.4320   -0.9680    1.7430 C.ar      1 LIG        -0.1500
     11 H4         -3.6510   -0.7960    2.7670 H         1 LIG         0.1500
     12 C6         -3.4040   -2.2670    1.2480 C.ar      1 LIG        -0.1500
     13 H5         -3.5990   -3.0850    1.8940 H         1 LIG         0.1500
     14 C7         -3.1320   -2.4910   -0.0970 C.ar      1 LIG        -0.1500
     15 H6         -3.1230   -3.4810   -0.4770 H         1 LIG         0.1500
     16 C8         -2.8790   -1.4170   -0.9460 C.ar      1 LIG        -0.1500
     17 H7         -2.6810   -1.6010   -1.9710 H         1 LIG         0.1500
     18 C9         -0.2610    1.3150   -0.3280 C.ar      1 LIG         0.1170
     19 C10         0.4270    2.3620    0.2210 C.ar      1 LIG         0.1170
     20 C11         1.6950    2.1530    0.8020 C.ar      1 LIG         0.4610
     21 N2          2.4650    3.0970    1.3880 N.pl3     1 LIG        -0.9000
     22 H8          3.3840    2.9150    1.8240 H         1 LIG         0.4000
     23 H9          2.1240    4.0750    1.4340 H         1 LIG         0.4000
     24 N3          2.2060    0.9020    0.7870 N.ar      1 LIG        -0.1790
     25 H10         3.1350    0.7590    1.2080 H         1 LIG         0.4570
     26 C12         1.5280   -0.1800    0.2290 C.ar      1 LIG         0.2170
     27 C13         2.2450   -1.5170    0.2960 C.3       1 LIG        -0.0160
     28 H11         2.7870   -1.6250    1.2370 H         1 LIG         0.0800
     29 H12         1.5170   -2.3270    0.2160 H         1 LIG         0.0800
     30 C14         3.2150   -1.5730   -0.8960 C.3       1 LIG        -0.1600
     31 H13         2.6560   -1.4850   -1.8310 H         1 LIG         0.0800
     32 H14         3.9370   -0.7550   -0.8440 H         1 LIG         0.0800
     33 C15         3.9790   -2.9020   -0.9050 C.3       1 LIG        -0.2400
     34 H15         3.2830   -3.7390   -0.9840 H         1 LIG         0.0800
     35 H16         4.5680   -3.0100    0.0080 H         1 LIG         0.0800
     36 H17         4.6550   -2.9310   -1.7620 H         1 LIG         0.0800
     37 C16         0.2900    0.0160   -0.3400 C.ar      1 LIG        -0.1500
     38 H18        -0.2490   -0.7860   -0.7740 H         1 LIG         0.1500
     39 N4         -0.3730    3.4940    0.0730 N.am      1 LIG        -0.5470
     40 H19        -0.2080    4.4700    0.3540 H         1 LIG         0.3700
@<TRIPOS>BOND
  1   1   2  2   
  2   2   3  am  
  3   2  39  am  
  4   3   4  1   
  5   3  18  1   
  6   4   5  1   
  7   4   6  1   
  8   4   7  1   
  9   7   8  ar  
 10   7  16  ar  
 11   8   9  1   
 12   8  10  ar  
 13  10  11  1   
 14  10  12  ar  
 15  12  13  1   
 16  12  14  ar  
 17  14  15  1   
 18  14  16  ar  
 19  16  17  1   
 20  18  19  ar  
 21  18  37  ar  
 22  19  20  ar  
 23  19  39  1   
 24  20  21  1   
 25  20  24  ar  
 26  21  22  1   
 27  21  23  1   
 28  24  25  1   
 29  24  26  ar  
 30  26  27  1   
 31  26  37  ar  
 32  27  28  1   
 33  27  29  1   
 34  27  30  1   
 35  30  31  1   
 36  30  32  1   
 37  30  33  1   
 38  33  34  1   
 39  33  35  1   
 40  33  36  1   
 41  37  38  1   
 42  39  40  1   
@<TRIPOS>SUBSTRUCTURE
  1 ****  18 GROUP 4 **** **** 0

# MOE 2018.01 (io_trps.svl 2018.01)

@<TRIPOS>MOLECULE
CHEMBL4071587
45 47 1 0 0 
SMALL
USER_CHARGES


@<TRIPOS>ATOM
      1 O1          3.7400    1.9700    0.1200 O.3       1 LIG        -0.5600
      2 C1          2.7510    1.0620    0.5780 C.3       1 LIG         0.1200
      3 H1          3.0260    0.0360    0.3330 H         1 LIG         0.0800
      4 H2          2.6240    1.1640    1.6560 H         1 LIG         0.0800
      5 C2          1.4420    1.4220   -0.1360 C.3       1 LIG         0.2090
      6 H3          1.5680    1.2650   -1.2100 H         1 LIG         0.0800
      7 H4          1.2370    2.4810    0.0390 H         1 LIG         0.0800
      8 N1          0.3470    0.5710    0.4320 N.pl3     1 LIG        -0.8690
      9 H5          0.2440    0.7080    1.4560 H         1 LIG         0.4000
     10 C3          0.1220   -0.6920   -0.0120 C.ar      1 LIG         0.4100
     11 N2          0.9540   -1.2170   -0.8840 N.ar      1 LIG        -0.6200
     12 C4          0.7990   -2.5020   -1.2350 C.ar      1 LIG         0.7710
     13 N3          1.6510   -3.0410   -2.0970 N.pl3     1 LIG        -0.9000
     14 H6          1.6250   -4.0160   -2.4280 H         1 LIG         0.4000
     15 H7          2.4070   -2.4330   -2.4540 H         1 LIG         0.4000
     16 N4         -0.1780   -3.2960   -0.7630 N.ar      1 LIG        -0.1250
     17 H8         -0.2090   -4.2740   -1.0680 H         1 LIG         0.4570
     18 C5         -1.1260   -2.7600    0.0880 C.ar      1 LIG         0.3070
     19 C6         -0.9810   -1.4440    0.4450 C.ar      1 LIG        -0.1520
     20 N5         -2.1120   -1.1280    1.2080 N.pl3     1 LIG         0.0480
     21 C7         -2.5180    0.1880    1.7240 C.3       1 LIG         0.2390
     22 H9         -3.2900    0.0480    2.4690 H         1 LIG         0.0800
     23 H10        -1.6650    0.7140    2.1280 H         1 LIG         0.0800
     24 C8         -3.1070    0.9540    0.5420 C.ar      1 LIG         0.2170
     25 N6         -2.2410    1.4640   -0.3700 N.ar      1 LIG        -0.1790
     26 H11        -1.2090    1.2970   -0.2400 H         1 LIG         0.4570
     27 C9         -2.6350    2.1670   -1.4510 C.ar      1 LIG         0.2110
     28 H12        -1.8560    2.5150   -2.0880 H         1 LIG         0.1500
     29 C10        -3.9900    2.3840   -1.6600 C.ar      1 LIG        -0.1500
     30 H13        -4.3160    2.9360   -2.5070 H         1 LIG         0.1500
     31 C11        -4.9180    1.8770   -0.7600 C.ar      1 LIG        -0.1500
     32 H14        -5.9590    2.0370   -0.9130 H         1 LIG         0.1500
     33 C12        -4.4690    1.1600    0.3430 C.ar      1 LIG        -0.1500
     34 H15        -5.1750    0.7700    1.0350 H         1 LIG         0.1500
     35 C13        -2.8880   -2.2620    1.3270 C.2       1 LIG        -0.3020
     36 H16        -3.8000   -2.2630    1.8750 H         1 LIG         0.1500
     37 C14        -2.2900   -3.2860    0.6420 C.2       1 LIG        -0.1500
     38 H17        -2.6600   -4.2770    0.5500 H         1 LIG         0.1500
     39 C15         5.0210    1.8170    0.7150 C.3       1 LIG         0.1200
     40 H18         5.6200    2.6930    0.4570 H         1 LIG         0.0800
     41 H19         4.9450    1.7670    1.8030 H         1 LIG         0.0800
     42 C16         5.7330    0.5760    0.1750 C.3       1 LIG        -0.2400
     43 H20         5.7020    0.5850   -0.9150 H         1 LIG         0.0800
     44 H21         5.2590   -0.3300    0.5510 H         1 LIG         0.0800
     45 H22         6.7730    0.5880    0.5000 H         1 LIG         0.0800
@<TRIPOS>BOND
  1   1   2  1   
  2   1  39  1   
  3   2   3  1   
  4   2   4  1   
  5   2   5  1   
  6   5   6  1   
  7   5   7  1   
  8   5   8  1   
  9   8   9  1   
 10   8  10  1   
 11  10  11  ar  
 12  10  19  ar  
 13  11  12  ar  
 14  12  13  1   
 15  12  16  ar  
 16  13  14  1   
 17  13  15  1   
 18  16  17  1   
 19  16  18  ar  
 20  18  19  ar  
 21  18  37  1   
 22  19  20  1   
 23  20  21  1   
 24  20  35  1   
 25  21  22  1   
 26  21  23  1   
 27  21  24  1   
 28  24  25  ar  
 29  24  33  ar  
 30  25  26  1   
 31  25  27  ar  
 32  27  28  1   
 33  27  29  ar  
 34  29  30  1   
 35  29  31  ar  
 36  31  32  1   
 37  31  33  ar  
 38  33  34  1   
 39  35  36  1   
 40  35  37  2   
 41  37  38  1   
 42  39  40  1   
 43  39  41  1   
 44  39  42  1   
 45  42  43  1   
 46  42  44  1   
 47  42  45  1   
@<TRIPOS>SUBSTRUCTURE
  1 ****  10 GROUP 4 **** **** 0

# MOE 2018.01 (io_trps.svl 2018.01)

@<TRIPOS>MOLECULE
CHEMBL4075504
45 47 1 0 0 
SMALL
USER_CHARGES


@<TRIPOS>ATOM
      1 O1         -0.1610   -1.3190   -1.2130 O.3       1 LIG        -0.5600
      2 C1          0.8960   -2.2240   -0.8780 C.3       1 LIG         0.1200
      3 H1          0.9360   -3.0450   -1.5990 H         1 LIG         0.0800
      4 H2          1.8550   -1.7060   -0.9160 H         1 LIG         0.0800
      5 C2          0.7100   -2.8310    0.5190 C.3       1 LIG        -0.1600
      6 H3         -0.0440   -3.6140    0.4370 H         1 LIG         0.0800
      7 H4          1.6420   -3.3120    0.8190 H         1 LIG         0.0800
      8 C3          0.2590   -1.8700    1.6250 C.3       1 LIG         0.2090
      9 H5          0.0070   -2.4550    2.5140 H         1 LIG         0.0800
     10 H6         -0.6310   -1.3480    1.3050 H         1 LIG         0.0800
     11 N1          1.3690   -0.9660    1.9540 N.pl3     1 LIG        -0.8690
     12 H7          2.0950   -1.4360    2.5260 H         1 LIG         0.4000
     13 C4          1.8840   -0.0200    1.1570 C.ar      1 LIG         0.4100
     14 N2          3.1800   -0.1470    0.9800 N.ar      1 LIG        -0.6200
     15 C5          3.7970    0.6690    0.1220 C.ar      1 LIG         0.7710
     16 N3          5.1050    0.5460   -0.0570 N.pl3     1 LIG        -0.9000
     17 H8          5.6830    1.1430   -0.6630 H         1 LIG         0.4000
     18 H9          5.5860   -0.1740    0.5110 H         1 LIG         0.4000
     19 N4          3.1700    1.6120   -0.5970 N.ar      1 LIG        -0.1250
     20 H10         3.7240    2.1890   -1.2370 H         1 LIG         0.4570
     21 C6          1.8160    1.8070   -0.4150 C.ar      1 LIG         0.3070
     22 C7          1.1730    1.0170    0.5030 C.ar      1 LIG        -0.1520
     23 N5         -0.1280    1.5340    0.5900 N.pl3     1 LIG         0.0480
     24 C8         -1.1570    1.2410    1.5960 C.3       1 LIG         0.2390
     25 H11        -0.8310    0.4640    2.2710 H         1 LIG         0.0800
     26 H12        -1.3570    2.1560    2.1380 H         1 LIG         0.0800
     27 C9         -2.4370    0.8240    0.8710 C.ar      1 LIG         0.2170
     28 N6         -2.3490   -0.0890   -0.1310 N.ar      1 LIG        -0.1790
     29 H13        -1.4060   -0.4720   -0.4050 H         1 LIG         0.4570
     30 C10        -3.4150   -0.5400   -0.8180 C.ar      1 LIG         0.2110
     31 H14        -3.2040   -1.2590   -1.5740 H         1 LIG         0.1500
     32 C11        -4.6770   -0.0550   -0.5060 C.ar      1 LIG        -0.1500
     33 H15        -5.5270   -0.4010   -1.0420 H         1 LIG         0.1500
     34 C12        -4.8240    0.8830    0.5060 C.ar      1 LIG        -0.1500
     35 H16        -5.7880    1.2620    0.7530 H         1 LIG         0.1500
     36 C13        -3.6980    1.3180    1.1950 C.ar      1 LIG        -0.1500
     37 H17        -3.8070    2.0320    1.9740 H         1 LIG         0.1500
     38 C14        -0.2590    2.5580   -0.3280 C.2       1 LIG        -0.3020
     39 H18        -1.1670    3.0990   -0.4410 H         1 LIG         0.1500
     40 C15         0.9380    2.7390   -0.9620 C.2       1 LIG        -0.1500
     41 H19         1.1500    3.4700   -1.7020 H         1 LIG         0.1500
     42 C16        -0.0480   -0.9030   -2.5730 C.3       1 LIG         0.0400
     43 H20        -0.8380   -0.1910   -2.8180 H         1 LIG         0.0800
     44 H21        -0.1410   -1.7620   -3.2420 H         1 LIG         0.0800
     45 H22         0.9160   -0.4230   -2.7500 H         1 LIG         0.0800
@<TRIPOS>BOND
  1   1   2  1   
  2   1  42  1   
  3   2   3  1   
  4   2   4  1   
  5   2   5  1   
  6   5   6  1   
  7   5   7  1   
  8   5   8  1   
  9   8   9  1   
 10   8  10  1   
 11   8  11  1   
 12  11  12  1   
 13  11  13  1   
 14  13  14  ar  
 15  13  22  ar  
 16  14  15  ar  
 17  15  16  1   
 18  15  19  ar  
 19  16  17  1   
 20  16  18  1   
 21  19  20  1   
 22  19  21  ar  
 23  21  22  ar  
 24  21  40  1   
 25  22  23  1   
 26  23  24  1   
 27  23  38  1   
 28  24  25  1   
 29  24  26  1   
 30  24  27  1   
 31  27  28  ar  
 32  27  36  ar  
 33  28  29  1   
 34  28  30  ar  
 35  30  31  1   
 36  30  32  ar  
 37  32  33  1   
 38  32  34  ar  
 39  34  35  1   
 40  34  36  ar  
 41  36  37  1   
 42  38  39  1   
 43  38  40  2   
 44  40  41  1   
 45  42  43  1   
 46  42  44  1   
 47  42  45  1   
@<TRIPOS>SUBSTRUCTURE
  1 ****  23 GROUP 4 **** **** 0

# MOE 2018.01 (io_trps.svl 2018.01)

@<TRIPOS>MOLECULE
CHEMBL4162974
59 61 1 0 0 
SMALL
USER_CHARGES


@<TRIPOS>ATOM
      1 O1         -6.8340   -0.6620    0.4270 O.2       1 LIG        -0.5700
      2 C1         -5.9670    0.1470    0.1370 C.2       1 LIG         0.6340
      3 O2         -6.3210    1.4460   -0.0080 O.3       1 LIG        -0.4300
      4 C2         -7.6950    1.8950    0.1750 C.3       1 LIG         0.0400
      5 H1         -7.7270    2.9710    0.0020 H         1 LIG         0.0800
      6 H2         -8.0020    1.6620    1.1960 H         1 LIG         0.0800
      7 H3         -8.3280    1.3720   -0.5440 H         1 LIG         0.0800
      8 C3         -4.5650   -0.2220   -0.0560 C.ar      1 LIG         0.0860
      9 C4         -4.1670   -1.5490    0.1040 C.ar      1 LIG        -0.1500
     10 H4         -4.8880   -2.2840    0.3600 H         1 LIG         0.1500
     11 C5         -2.8270   -1.9000   -0.0760 C.ar      1 LIG         0.3610
     12 N1         -2.4760   -3.2610    0.0700 N.ar      1 LIG        -0.1790
     13 H5         -3.1930   -3.9560    0.3070 H         1 LIG         0.4570
     14 C6         -1.2270   -3.6950   -0.1000 C.ar      1 LIG         0.4610
     15 N2         -1.0420   -5.0070    0.0540 N.pl3     1 LIG        -0.9000
     16 H6         -1.7750   -5.6950    0.2860 H         1 LIG         0.4000
     17 H7         -0.0720   -5.3660   -0.0730 H         1 LIG         0.4000
     18 C7         -0.1920   -2.7660   -0.4230 C.ar      1 LIG         0.2270
     19 N3          1.1270   -3.0180   -0.6410 N.2       1 LIG        -0.5650
     20 C8          1.6700   -1.8670   -0.8730 C.2       1 LIG         0.0060
     21 C9          3.1460   -1.6830   -1.2000 C.3       1 LIG         0.0200
     22 H8          3.5610   -2.6470   -1.4990 H         1 LIG         0.0800
     23 H9          3.2710   -0.9990   -2.0380 H         1 LIG         0.0800
     24 C10         3.9070   -1.1590    0.0370 C.3       1 LIG        -0.1600
     25 H10         4.9650   -1.0960   -0.2250 H         1 LIG         0.0800
     26 H11         3.5780   -0.1490    0.2630 H         1 LIG         0.0800
     27 C11         3.7830   -2.0100    1.3140 C.3       1 LIG        -0.1600
     28 H12         4.3390   -1.5190    2.1150 H         1 LIG         0.0800
     29 H13         2.7380   -2.0710    1.6240 H         1 LIG         0.0800
     30 C12         4.3380   -3.4300    1.1430 C.3       1 LIG        -0.2400
     31 H14         5.3710   -3.3930    0.7940 H         1 LIG         0.0800
     32 H15         3.7320   -3.9900    0.4290 H         1 LIG         0.0800
     33 H16         4.3080   -3.9490    2.1010 H         1 LIG         0.0800
     34 N4          0.7300   -0.8530   -0.8030 N.pl3     1 LIG         0.0480
     35 C13         1.0350    0.5800   -0.9550 C.3       1 LIG         0.0960
     36 H17         2.0390    0.6970   -1.3330 H         1 LIG         0.0800
     37 H18         0.3190    1.0320   -1.6230 H         1 LIG         0.0800
     38 C14         0.9550    1.2030    0.4630 C.3       1 LIG        -0.1600
     39 H19        -0.0350    1.0450    0.8900 H         1 LIG         0.0800
     40 H20         1.6750    0.7280    1.1330 H         1 LIG         0.0800
     41 C15         1.2250    2.7190    0.3790 C.3       1 LIG        -0.1600
     42 H21         0.5460    3.1700   -0.3470 H         1 LIG         0.0800
     43 H22         0.9920    3.1370    1.3630 H         1 LIG         0.0800
     44 C16         2.6900    3.0630    0.0350 C.3       1 LIG        -0.1600
     45 H23         2.8910    2.8460   -1.0150 H         1 LIG         0.0800
     46 H24         3.3470    2.4300    0.6370 H         1 LIG         0.0800
     47 C17         3.0650    4.5200    0.3390 C.3       1 LIG         0.3430
     48 H25         4.1350    4.6500    0.1530 H         1 LIG         0.0800
     49 H26         2.8830    4.7130    1.4010 H         1 LIG         0.0800
     50 N5          2.2870    5.4620   -0.4940 N.4       1 LIG        -0.8530
     51 H27         2.4640    5.2940   -1.4750 H         1 LIG         0.4500
     52 H28         2.5480    6.4170   -0.2790 H         1 LIG         0.4500
     53 H29         1.2990    5.3520   -0.3120 H         1 LIG         0.4500
     54 C18        -0.4780   -1.4310   -0.5450 C.ar      1 LIG        -0.1520
     55 C19        -1.8330   -0.9440   -0.4050 C.ar      1 LIG         0.0000
     56 C20        -2.2610    0.3890   -0.5820 C.ar      1 LIG        -0.1500
     57 H30        -1.5780    1.1450   -0.8550 H         1 LIG         0.1500
     58 C21        -3.5900    0.7380   -0.4080 C.ar      1 LIG        -0.1500
     59 H31        -3.8870    1.7490   -0.5440 H         1 LIG         0.1500
@<TRIPOS>BOND
  1   1   2  2   
  2   2   3  1   
  3   2   8  1   
  4   3   4  1   
  5   4   5  1   
  6   4   6  1   
  7   4   7  1   
  8   8   9  ar  
  9   8  58  ar  
 10   9  10  1   
 11   9  11  ar  
 12  11  12  ar  
 13  11  55  ar  
 14  12  13  1   
 15  12  14  ar  
 16  14  15  1   
 17  14  18  ar  
 18  15  16  1   
 19  15  17  1   
 20  18  19  1   
 21  18  54  ar  
 22  19  20  2   
 23  20  21  1   
 24  20  34  1   
 25  21  22  1   
 26  21  23  1   
 27  21  24  1   
 28  24  25  1   
 29  24  26  1   
 30  24  27  1   
 31  27  28  1   
 32  27  29  1   
 33  27  30  1   
 34  30  31  1   
 35  30  32  1   
 36  30  33  1   
 37  34  35  1   
 38  34  54  1   
 39  35  36  1   
 40  35  37  1   
 41  35  38  1   
 42  38  39  1   
 43  38  40  1   
 44  38  41  1   
 45  41  42  1   
 46  41  43  1   
 47  41  44  1   
 48  44  45  1   
 49  44  46  1   
 50  44  47  1   
 51  47  48  1   
 52  47  49  1   
 53  47  50  1   
 54  50  51  1   
 55  50  52  1   
 56  50  53  1   
 57  54  55  ar  
 58  55  56  ar  
 59  56  57  1   
 60  56  58  ar  
 61  58  59  1   
@<TRIPOS>SUBSTRUCTURE
  1 ****  54 GROUP 4 **** **** 0

# MOE 2018.01 (io_trps.svl 2018.01)

@<TRIPOS>MOLECULE
CHEMBL1082307
49 52 1 0 0 
SMALL
USER_CHARGES


@<TRIPOS>ATOM
      1 O1         -4.7790    3.0580   -0.9000 O.3       1 LIG        -0.3370
      2 H1         -5.1200    2.3350   -1.4670 H         1 LIG         0.4000
      3 N1         -3.5650    2.7780   -0.3160 N.2       1 LIG        -0.5130
      4 C1         -3.1910    1.5730   -0.0710 C.2       1 LIG         0.5730
      5 N2         -4.0850    0.4950   -0.2340 N.pl3     1 LIG        -0.5500
      6 H2         -5.0840    0.7260   -0.3080 H         1 LIG         0.4000
      7 C2         -3.6900   -0.8590   -0.0750 C.ar      1 LIG         0.1000
      8 C3         -2.3670   -1.1920    0.3140 C.ar      1 LIG         0.0410
      9 C4         -1.4910   -0.0750    0.6380 C.2       1 LIG         0.3090
     10 N3         -0.2080    0.0210    1.1820 N.pl3     1 LIG        -0.7640
     11 C5          0.6270   -1.0670    1.7240 C.3       1 LIG         0.4980
     12 H3          1.1190   -0.7250    2.6260 H         1 LIG         0.0800
     13 H4          0.0410   -1.9450    1.9460 H         1 LIG         0.0800
     14 C6          1.6830   -1.3910    0.6770 C.ar      1 LIG        -0.1440
     15 C7          1.3610   -1.5570   -0.6740 C.ar      1 LIG        -0.1500
     16 H5          0.3620   -1.4560   -1.0090 H         1 LIG         0.1500
     17 C8          2.3520   -1.8550   -1.6040 C.ar      1 LIG        -0.1500
     18 H6          2.1020   -1.9760   -2.6280 H         1 LIG         0.1500
     19 C9          3.6730   -1.9970   -1.1940 C.ar      1 LIG        -0.1500
     20 H7          4.4270   -2.2260   -1.9040 H         1 LIG         0.1500
     21 C10         4.0020   -1.8440    0.1470 C.ar      1 LIG        -0.1500
     22 H8          5.0100   -1.9590    0.4590 H         1 LIG         0.1500
     23 C11         3.0130   -1.5450    1.0790 C.ar      1 LIG        -0.1500
     24 H9          3.2850   -1.4400    2.0980 H         1 LIG         0.1500
     25 C12         0.1920    1.2940    1.1920 C.cat     1 LIG         0.6560
     26 C13         1.5180    1.8900    1.6450 C.3       1 LIG        -0.0160
     27 H10         1.3330    2.5460    2.4960 H         1 LIG         0.0800
     28 H11         2.2240    1.1200    1.9470 H         1 LIG         0.0800
     29 C14         2.1300    2.7090    0.4890 C.3       1 LIG        -0.1600
     30 H12         1.4430    3.4990    0.1800 H         1 LIG         0.0800
     31 H13         3.0390    3.1910    0.8570 H         1 LIG         0.0800
     32 C15         2.4980    1.8440   -0.7270 C.3       1 LIG        -0.1600
     33 H14         3.2030    1.0650   -0.4280 H         1 LIG         0.0800
     34 H15         1.6090    1.3670   -1.1430 H         1 LIG         0.0800
     35 C16         3.1450    2.7020   -1.8180 C.3       1 LIG        -0.2400
     36 H16         4.0550    3.1700   -1.4390 H         1 LIG         0.0800
     37 H17         2.4520    3.4760   -2.1520 H         1 LIG         0.0800
     38 H18         3.4050    2.0710   -2.6700 H         1 LIG         0.0800
     39 N4         -0.8160    2.0040    0.7430 N.pl3     1 LIG        -0.7000
     40 H19        -0.8030    3.0360    0.6480 H         1 LIG         0.4500
     41 C17        -1.8790    1.2030    0.4130 C.2       1 LIG         0.2770
     42 C18        -2.0160   -2.5540    0.3220 C.ar      1 LIG        -0.1500
     43 H20        -1.0260   -2.8630    0.5180 H         1 LIG         0.1500
     44 C19        -2.9620   -3.5340    0.0440 C.ar      1 LIG        -0.1500
     45 H21        -2.6860   -4.5590    0.0660 H         1 LIG         0.1500
     46 C20        -4.2740   -3.1820   -0.2720 C.ar      1 LIG        -0.1500
     47 H22        -4.9880   -3.9420   -0.4750 H         1 LIG         0.1500
     48 C21        -4.6410   -1.8470   -0.3390 C.ar      1 LIG        -0.1500
     49 H23        -5.6330   -1.5820   -0.5990 H         1 LIG         0.1500
@<TRIPOS>BOND
  1   1   2  1   
  2   1   3  1   
  3   3   4  2   
  4   4   5  1   
  5   4  41  1   
  6   5   6  1   
  7   5   7  1   
  8   7   8  ar  
  9   7  48  ar  
 10   8   9  1   
 11   8  42  ar  
 12   9  10  1   
 13   9  41  2   
 14  10  11  1   
 15  10  25  ar  
 16  11  12  1   
 17  11  13  1   
 18  11  14  1   
 19  14  15  ar  
 20  14  23  ar  
 21  15  16  1   
 22  15  17  ar  
 23  17  18  1   
 24  17  19  ar  
 25  19  20  1   
 26  19  21  ar  
 27  21  22  1   
 28  21  23  ar  
 29  23  24  1   
 30  25  26  1   
 31  25  39  ar  
 32  26  27  1   
 33  26  28  1   
 34  26  29  1   
 35  29  30  1   
 36  29  31  1   
 37  29  32  1   
 38  32  33  1   
 39  32  34  1   
 40  32  35  1   
 41  35  36  1   
 42  35  37  1   
 43  35  38  1   
 44  39  40  1   
 45  39  41  1   
 46  42  43  1   
 47  42  44  ar  
 48  44  45  1   
 49  44  46  ar  
 50  46  47  1   
 51  46  48  ar  
 52  48  49  1   
@<TRIPOS>SUBSTRUCTURE
  1 ****   9 GROUP 4 **** **** 0

# MOE 2018.01 (io_trps.svl 2018.01)

@<TRIPOS>MOLECULE
CHEMBL215536
44 46 1 0 0 
SMALL
USER_CHARGES


@<TRIPOS>ATOM
      1 O1          4.2950   -1.1440   -1.1100 O.3       1 LIG        -0.5600
      2 C1          5.0120   -1.6790   -0.0030 C.3       1 LIG         0.1200
      3 H1          4.6150   -2.6610    0.2620 H         1 LIG         0.0800
      4 H2          6.0660   -1.7810   -0.2660 H         1 LIG         0.0800
      5 C2          4.9030   -0.7590    1.2190 C.3       1 LIG         0.1200
      6 H3          5.2250    0.2510    0.9610 H         1 LIG         0.0800
      7 H4          5.5330   -1.1450    2.0200 H         1 LIG         0.0800
      8 O2          3.5080   -0.8000    1.6400 O.3       1 LIG        -0.3630
      9 C3          2.5660    0.0480    1.1570 C.ar      1 LIG         0.7020
     10 N1          2.9590    1.2690    0.7050 N.ar      1 LIG        -0.6200
     11 C4          2.0410    2.0790    0.2230 C.ar      1 LIG         0.4100
     12 N2          2.5010    3.2850   -0.2240 N.pl3     1 LIG        -0.9000
     13 H5          3.5290    3.3160   -0.3130 H         1 LIG         0.4000
     14 H6          1.9800    3.7480   -0.9790 H         1 LIG         0.4000
     15 C5          0.7010    1.6730    0.2040 C.ar      1 LIG         0.3110
     16 N3         -0.5210    2.2220   -0.1880 N.pl3     1 LIG        -0.8280
     17 H7         -0.7720    3.1400   -0.5770 H         1 LIG         0.4500
     18 C6         -1.4630    1.3350    0.0650 C.cat     1 LIG         1.2000
     19 N4         -2.7310    1.6060   -0.2110 N.pl3     1 LIG        -0.7020
     20 H8         -3.4070    0.8260   -0.0310 H         1 LIG         0.4500
     21 N5         -3.2220    2.9300   -0.8020 N.3       1 LIG        -0.5350
     22 H9         -3.9410    3.3330   -0.1640 H         1 LIG         0.3600
     23 H10        -3.7650    2.7250   -1.6680 H         1 LIG         0.3600
     24 N6         -0.9380    0.2180    0.6050 N.pl3     1 LIG        -0.7050
     25 C7         -1.5470   -1.0280    1.1070 C.3       1 LIG         0.3110
     26 H11        -1.0270   -1.8810    0.6870 H         1 LIG         0.0800
     27 H12        -1.5110   -1.0370    2.1900 H         1 LIG         0.0800
     28 C8         -2.9900   -1.0700    0.6520 C.ar      1 LIG        -0.1440
     29 C9         -4.0120   -0.6640    1.5130 C.ar      1 LIG        -0.1500
     30 H13        -3.7910   -0.3710    2.5090 H         1 LIG         0.1500
     31 C10        -5.3310   -0.6420    1.0720 C.ar      1 LIG        -0.1500
     32 H14        -6.1070   -0.3390    1.7290 H         1 LIG         0.1500
     33 C11        -5.6370   -1.0290   -0.2280 C.ar      1 LIG        -0.1500
     34 H15        -6.6450   -1.0190   -0.5620 H         1 LIG         0.1500
     35 C12        -4.6250   -1.4470   -1.0860 C.ar      1 LIG        -0.1500
     36 H16        -4.8630   -1.7570   -2.0730 H         1 LIG         0.1500
     37 C13        -3.3060   -1.4700   -0.6470 C.ar      1 LIG        -0.1500
     38 H17        -2.5410   -1.7950   -1.3090 H         1 LIG         0.1500
     39 C14         0.4180    0.4300    0.6980 C.ar      1 LIG         0.6210
     40 N7          1.3180   -0.4120    1.1900 N.ar      1 LIG        -0.6200
     41 C15         4.3690   -1.9680   -2.2620 C.3       1 LIG         0.0400
     42 H18         3.8040   -1.5040   -3.0710 H         1 LIG         0.0800
     43 H19         3.9410   -2.9500   -2.0540 H         1 LIG         0.0800
     44 H20         5.4070   -2.0820   -2.5810 H         1 LIG         0.0800
@<TRIPOS>BOND
  1   1   2  1   
  2   1  41  1   
  3   2   3  1   
  4   2   4  1   
  5   2   5  1   
  6   5   6  1   
  7   5   7  1   
  8   5   8  1   
  9   8   9  1   
 10   9  10  ar  
 11   9  40  ar  
 12  10  11  ar  
 13  11  12  1   
 14  11  15  ar  
 15  12  13  1   
 16  12  14  1   
 17  15  16  1   
 18  15  39  ar  
 19  16  17  1   
 20  16  18  ar  
 21  18  19  ar  
 22  18  24  ar  
 23  19  20  1   
 24  19  21  1   
 25  21  22  1   
 26  21  23  1   
 27  24  25  1   
 28  24  39  1   
 29  25  26  1   
 30  25  27  1   
 31  25  28  1   
 32  28  29  ar  
 33  28  37  ar  
 34  29  30  1   
 35  29  31  ar  
 36  31  32  1   
 37  31  33  ar  
 38  33  34  1   
 39  33  35  ar  
 40  35  36  1   
 41  35  37  ar  
 42  37  38  1   
 43  39  40  ar  
 44  41  42  1   
 45  41  43  1   
 46  41  44  1   
@<TRIPOS>SUBSTRUCTURE
  1 ****  39 GROUP 4 **** **** 0

# MOE 2018.01 (io_trps.svl 2018.01)

@<TRIPOS>MOLECULE
CHEMBL4645797
45 47 1 0 0 
SMALL
USER_CHARGES


@<TRIPOS>ATOM
      1 CL1        -6.6690   -0.5950   -1.0410 Cl        1 LIG        -0.1770
      2 C1         -4.9980   -0.2640   -0.7420 C.ar      1 LIG         0.1770
      3 C2         -4.6100    0.9950   -0.3110 C.ar      1 LIG        -0.1500
      4 H1         -5.3410    1.7480   -0.1710 H         1 LIG         0.1500
      5 C3         -3.2540    1.2380   -0.0760 C.ar      1 LIG         0.3610
      6 N1         -2.8760    2.5340    0.3440 N.ar      1 LIG        -0.1790
      7 H2         -3.5860    3.2640    0.4690 H         1 LIG         0.4570
      8 C4         -1.6060    2.8640    0.5820 C.ar      1 LIG         0.4610
      9 N2         -1.3960    4.1280    0.9570 N.pl3     1 LIG        -0.9000
     10 H3         -2.1220    4.8520    1.0700 H         1 LIG         0.4000
     11 H4         -0.4090    4.4090    1.1400 H         1 LIG         0.4000
     12 C5         -0.5780    1.8880    0.4290 C.ar      1 LIG         0.2270
     13 N3          0.7650    2.0370    0.6170 N.2       1 LIG        -0.5650
     14 C6          1.2790    0.8780    0.3540 C.2       1 LIG         0.0060
     15 C7          2.7640    0.5580    0.3910 C.3       1 LIG         0.3000
     16 H5          2.9460   -0.2560    1.0780 H         1 LIG         0.0800
     17 H6          3.2990    1.4620    0.6500 H         1 LIG         0.0800
     18 O1          3.1080    0.1390   -0.9650 O.3       1 LIG        -0.5600
     19 C8          4.4950    0.2410   -1.3530 C.3       1 LIG         0.1200
     20 H7          5.1610    0.1120   -0.4980 H         1 LIG         0.0800
     21 H8          4.7200   -0.5070   -2.1160 H         1 LIG         0.0800
     22 C9          4.6400    1.6400   -1.9500 C.3       1 LIG        -0.2400
     23 H9          4.4250    2.3970   -1.1960 H         1 LIG         0.0800
     24 H10         3.9430    1.7550   -2.7800 H         1 LIG         0.0800
     25 H11         5.6580    1.7770   -2.3140 H         1 LIG         0.0800
     26 N4          0.3000   -0.0400    0.0160 N.pl3     1 LIG         0.0480
     27 C10         0.5550   -1.4630   -0.2810 C.3       1 LIG         0.0960
     28 H12         0.0240   -1.7280   -1.1820 H         1 LIG         0.0800
     29 H13         1.6110   -1.6480   -0.4070 H         1 LIG         0.0800
     30 C11         0.0540   -2.3070    0.9230 C.3       1 LIG        -0.0800
     31 H14        -0.9630   -2.0480    1.2230 H         1 LIG         0.0800
     32 C12         0.0790   -3.7840    0.5020 C.3       1 LIG        -0.2400
     33 H15         1.0900   -4.0840    0.2200 H         1 LIG         0.0800
     34 H16        -0.5900   -3.9480   -0.3440 H         1 LIG         0.0800
     35 H17        -0.2540   -4.4110    1.3310 H         1 LIG         0.0800
     36 C13         0.9860   -2.1180    2.1320 C.3       1 LIG        -0.2400
     37 H18         2.0120   -2.3830    1.8720 H         1 LIG         0.0800
     38 H19         0.6580   -2.7600    2.9510 H         1 LIG         0.0800
     39 H20         0.9540   -1.0850    2.4820 H         1 LIG         0.0800
     40 C14        -0.8970    0.6120    0.0390 C.ar      1 LIG        -0.1520
     41 C15        -2.2620    0.2370   -0.2510 C.ar      1 LIG         0.0000
     42 C16        -2.6990   -1.0290   -0.7040 C.ar      1 LIG        -0.1500
     43 H21        -2.0110   -1.8110   -0.8720 H         1 LIG         0.1500
     44 C17        -4.0420   -1.2730   -0.9410 C.ar      1 LIG        -0.1500
     45 H22        -4.3640   -2.2260   -1.2780 H         1 LIG         0.1500
@<TRIPOS>BOND
  1   1   2  1   
  2   2   3  ar  
  3   2  44  ar  
  4   3   4  1   
  5   3   5  ar  
  6   5   6  ar  
  7   5  41  ar  
  8   6   7  1   
  9   6   8  ar  
 10   8   9  1   
 11   8  12  ar  
 12   9  10  1   
 13   9  11  1   
 14  12  13  1   
 15  12  40  ar  
 16  13  14  2   
 17  14  15  1   
 18  14  26  1   
 19  15  16  1   
 20  15  17  1   
 21  15  18  1   
 22  18  19  1   
 23  19  20  1   
 24  19  21  1   
 25  19  22  1   
 26  22  23  1   
 27  22  24  1   
 28  22  25  1   
 29  26  27  1   
 30  26  40  1   
 31  27  28  1   
 32  27  29  1   
 33  27  30  1   
 34  30  31  1   
 35  30  32  1   
 36  30  36  1   
 37  32  33  1   
 38  32  34  1   
 39  32  35  1   
 40  36  37  1   
 41  36  38  1   
 42  36  39  1   
 43  40  41  ar  
 44  41  42  ar  
 45  42  43  1   
 46  42  44  ar  
 47  44  45  1   
@<TRIPOS>SUBSTRUCTURE
  1 ****  40 GROUP 4 **** **** 0

# MOE 2018.01 (io_trps.svl 2018.01)

@<TRIPOS>MOLECULE
CHEMBL4102127
41 42 1 0 0 
SMALL
USER_CHARGES


@<TRIPOS>ATOM
      1 O1         -3.0190   -0.3090   -1.7200 O.2       1 LIG        -0.5700
      2 C1         -3.0390   -0.6230   -0.5360 C.2       1 LIG         0.5690
      3 N1         -4.1920   -0.9450    0.0660 N.am      1 LIG        -0.7300
      4 H1         -4.1920   -1.1980    1.0410 H         1 LIG         0.3700
      5 C2         -5.4720   -0.9570   -0.6390 C.3       1 LIG         0.0600
      6 H2         -5.6650    0.0260   -1.0760 H         1 LIG         0.0800
      7 H3         -6.2830   -1.2070    0.0470 H         1 LIG         0.0800
      8 H4         -5.4460   -1.6940   -1.4450 H         1 LIG         0.0800
      9 C3         -1.7740   -0.6340    0.2960 C.3       1 LIG         0.1570
     10 H5         -1.9580   -1.1140    1.2440 H         1 LIG         0.0800
     11 H6         -1.0160   -1.1130   -0.3040 H         1 LIG         0.0800
     12 N2         -1.4090    0.7740    0.5200 N.pl3     1 LIG         0.0480
     13 C4         -0.2040    1.3990    0.1760 C.ar      1 LIG        -0.1520
     14 C5          1.0380    0.9430   -0.3240 C.ar      1 LIG         0.4100
     15 N3          1.4050   -0.3390   -0.3910 N.pl3     1 LIG        -0.8690
     16 H7          2.1820   -0.5160   -1.0490 H         1 LIG         0.4000
     17 C6          1.5190   -1.1480    0.8200 C.3       1 LIG         0.2090
     18 H8          0.6330   -1.0610    1.4480 H         1 LIG         0.0800
     19 H9          2.3920   -0.8470    1.4030 H         1 LIG         0.0800
     20 C7          1.6750   -2.5970    0.3360 C.3       1 LIG        -0.1600
     21 H10         1.6820   -3.2440    1.2140 H         1 LIG         0.0800
     22 H11         0.8000   -2.8640   -0.2590 H         1 LIG         0.0800
     23 C8          2.9390   -2.8970   -0.4940 C.3       1 LIG        -0.1600
     24 H12         2.9440   -3.9610   -0.7360 H         1 LIG         0.0800
     25 H13         2.9070   -2.3490   -1.4370 H         1 LIG         0.0800
     26 C9          4.2410   -2.5610    0.2440 C.3       1 LIG        -0.2400
     27 H14         4.3320   -1.4840    0.3930 H         1 LIG         0.0800
     28 H15         5.0920   -2.8970   -0.3510 H         1 LIG         0.0800
     29 H16         4.2680   -3.0670    1.2100 H         1 LIG         0.0800
     30 N4          1.9530    1.7980   -0.7230 N.ar      1 LIG        -0.6200
     31 C10         1.7050    3.1020   -0.5710 C.ar      1 LIG         0.7710
     32 N5          2.6170    3.9790   -0.9760 N.pl3     1 LIG        -0.9000
     33 H17         2.5170    5.0020   -0.9350 H         1 LIG         0.4000
     34 H18         3.4720    3.5880   -1.4050 H         1 LIG         0.4000
     35 N6          0.5870    3.6000   -0.0170 N.ar      1 LIG        -0.1250
     36 H19         0.4920    4.6140    0.0740 H         1 LIG         0.4570
     37 C11        -0.4130    2.7360    0.3770 C.ar      1 LIG         0.3070
     38 C12        -1.6760    2.9600    0.9210 C.2       1 LIG        -0.1500
     39 H20        -2.1070    3.8880    1.1980 H         1 LIG         0.1500
     40 C13        -2.2760    1.7340    1.0090 C.2       1 LIG        -0.3020
     41 H21        -3.2510    1.4820    1.3490 H         1 LIG         0.1500
@<TRIPOS>BOND
  1   1   2  2   
  2   2   3  am  
  3   2   9  1   
  4   3   4  1   
  5   3   5  1   
  6   5   6  1   
  7   5   7  1   
  8   5   8  1   
  9   9  10  1   
 10   9  11  1   
 11   9  12  1   
 12  12  13  1   
 13  12  40  1   
 14  13  14  ar  
 15  13  37  ar  
 16  14  15  1   
 17  14  30  ar  
 18  15  16  1   
 19  15  17  1   
 20  17  18  1   
 21  17  19  1   
 22  17  20  1   
 23  20  21  1   
 24  20  22  1   
 25  20  23  1   
 26  23  24  1   
 27  23  25  1   
 28  23  26  1   
 29  26  27  1   
 30  26  28  1   
 31  26  29  1   
 32  30  31  ar  
 33  31  32  1   
 34  31  35  ar  
 35  32  33  1   
 36  32  34  1   
 37  35  36  1   
 38  35  37  ar  
 39  37  38  1   
 40  38  39  1   
 41  38  40  2   
 42  40  41  1   
@<TRIPOS>SUBSTRUCTURE
  1 ****  13 GROUP 4 **** **** 0

# MOE 2018.01 (io_trps.svl 2018.01)

@<TRIPOS>MOLECULE
CHEMBL4069818
55 55 1 0 0 
SMALL
USER_CHARGES


@<TRIPOS>ATOM
      1 O1          3.3120   -1.0250   -2.3930 O.3       1 LIG        -0.5600
      2 C1          2.5710   -0.3310   -1.4080 C.3       1 LIG         0.1200
      3 H1          2.7500    0.7420   -1.4870 H         1 LIG         0.0800
      4 H2          1.5090   -0.5620   -1.5050 H         1 LIG         0.0800
      5 C2          3.1270   -0.8800   -0.0840 C.3       1 LIG         0.3430
      6 H3          4.1340   -0.5040    0.0530 H         1 LIG         0.0800
      7 H4          3.1190   -1.9600   -0.1820 H         1 LIG         0.0800
      8 N1          2.2260   -0.4630    1.0340 N.4       1 LIG        -0.9590
      9 H5          1.2610   -0.3800    0.6940 H         1 LIG         0.4500
     10 C3          2.7230    0.7960    1.6410 C.3       1 LIG         0.3430
     11 H6          2.6580    0.7550    2.7230 H         1 LIG         0.0800
     12 H7          3.7360    0.9990    1.3100 H         1 LIG         0.0800
     13 C4          1.8040    1.9350    1.1510 C.3       1 LIG        -0.1600
     14 H8          2.2670    2.8810    1.4380 H         1 LIG         0.0800
     15 H9          1.7340    1.9280    0.0640 H         1 LIG         0.0800
     16 C5          0.4090    1.8480    1.8240 C.3       1 LIG        -0.0160
     17 H10         0.2800    2.6880    2.5090 H         1 LIG         0.0800
     18 H11         0.2940    0.9410    2.4190 H         1 LIG         0.0800
     19 C6         -0.6180    1.9070    0.6890 C.ar      1 LIG        -0.1430
     20 C7         -1.0130    0.7190    0.0120 C.ar      1 LIG         0.4100
     21 N2         -0.6460   -0.4940    0.4910 N.pl3     1 LIG        -0.8690
     22 H12        -0.5920   -0.5650    1.5200 H         1 LIG         0.4000
     23 C8         -1.0310   -1.7710   -0.1510 C.3       1 LIG         0.2090
     24 H13        -1.1990   -1.6670   -1.2270 H         1 LIG         0.0800
     25 H14        -0.2630   -2.5300    0.0110 H         1 LIG         0.0800
     26 C9         -2.3240   -2.1920    0.5520 C.3       1 LIG        -0.1600
     27 H15        -2.1410   -2.3030    1.6210 H         1 LIG         0.0800
     28 H16        -3.0830   -1.4220    0.4010 H         1 LIG         0.0800
     29 C10        -2.8460   -3.5220   -0.0090 C.3       1 LIG        -0.1600
     30 H17        -3.0550   -3.4160   -1.0760 H         1 LIG         0.0800
     31 H18        -2.0960   -4.3040    0.1260 H         1 LIG         0.0800
     32 C11        -4.1340   -3.9370    0.7120 C.3       1 LIG        -0.2400
     33 H19        -4.9040   -3.1750    0.5760 H         1 LIG         0.0800
     34 H20        -3.9440   -4.0720    1.7770 H         1 LIG         0.0800
     35 H21        -4.4970   -4.8790    0.2980 H         1 LIG         0.0800
     36 N3         -1.7560    0.7450   -1.0720 N.ar      1 LIG        -0.6200
     37 C12        -2.2330    1.9060   -1.4730 C.ar      1 LIG         0.7710
     38 N4         -3.0070    1.9710   -2.5470 N.pl3     1 LIG        -0.9000
     39 H22        -3.4400    2.8280   -2.9170 H         1 LIG         0.4000
     40 H23        -3.2230    1.0770   -3.0200 H         1 LIG         0.4000
     41 N5         -1.9760    3.0590   -0.8410 N.ar      1 LIG        -0.1790
     42 H24        -2.4140    3.9090   -1.2130 H         1 LIG         0.4570
     43 C13        -1.1430    3.0980    0.2430 C.ar      1 LIG         0.2180
     44 C14        -0.8830    4.4780    0.8210 C.3       1 LIG        -0.0970
     45 H25         0.1940    4.6490    0.8410 H         1 LIG         0.0800
     46 H26        -1.2850    4.5050    1.8360 H         1 LIG         0.0800
     47 H27        -1.3620    5.2500    0.2180 H         1 LIG         0.0800
     48 C15         2.3300   -1.5240    2.0630 C.3       1 LIG         0.2630
     49 H28         3.3670   -1.6110    2.3690 H         1 LIG         0.0800
     50 H29         1.9850   -2.4560    1.6280 H         1 LIG         0.0800
     51 H30         1.7070   -1.2500    2.9060 H         1 LIG         0.0800
     52 C16         2.9650   -0.6700   -3.7250 C.3       1 LIG         0.0400
     53 H31         3.5760   -1.2500   -4.4200 H         1 LIG         0.0800
     54 H32         3.1550    0.3900   -3.9020 H         1 LIG         0.0800
     55 H33         1.9140   -0.8930   -3.9200 H         1 LIG         0.0800
@<TRIPOS>BOND
  1   1   2  1   
  2   1  52  1   
  3   2   3  1   
  4   2   4  1   
  5   2   5  1   
  6   5   6  1   
  7   5   7  1   
  8   5   8  1   
  9   8   9  1   
 10   8  10  1   
 11   8  48  1   
 12  10  11  1   
 13  10  12  1   
 14  10  13  1   
 15  13  14  1   
 16  13  15  1   
 17  13  16  1   
 18  16  17  1   
 19  16  18  1   
 20  16  19  1   
 21  19  20  ar  
 22  19  43  ar  
 23  20  21  1   
 24  20  36  ar  
 25  21  22  1   
 26  21  23  1   
 27  23  24  1   
 28  23  25  1   
 29  23  26  1   
 30  26  27  1   
 31  26  28  1   
 32  26  29  1   
 33  29  30  1   
 34  29  31  1   
 35  29  32  1   
 36  32  33  1   
 37  32  34  1   
 38  32  35  1   
 39  36  37  ar  
 40  37  38  1   
 41  37  41  ar  
 42  38  39  1   
 43  38  40  1   
 44  41  42  1   
 45  41  43  ar  
 46  43  44  1   
 47  44  45  1   
 48  44  46  1   
 49  44  47  1   
 50  48  49  1   
 51  48  50  1   
 52  48  51  1   
 53  52  53  1   
 54  52  54  1   
 55  52  55  1   
@<TRIPOS>SUBSTRUCTURE
  1 ****  20 GROUP 4 **** **** 0

# MOE 2018.01 (io_trps.svl 2018.01)

@<TRIPOS>MOLECULE
CHEMBL4069667
53 55 1 0 0 
SMALL
USER_CHARGES


@<TRIPOS>ATOM
      1 O1         -2.9710   -2.8140    0.5810 O.2       1 LIG        -0.5700
      2 C1         -3.1460   -1.6600    0.2220 C.2       1 LIG         0.5440
      3 N1         -2.1180   -0.7320    0.1770 N.am      1 LIG        -0.4200
      4 C2         -0.7200   -1.0060    0.5020 C.3       1 LIG         0.1400
      5 H1         -0.5390   -2.0740    0.5150 H         1 LIG         0.0800
      6 H2         -0.1150   -0.5110   -0.2420 H         1 LIG         0.0800
      7 C3         -0.4990   -0.4350    1.9270 C.3       1 LIG        -0.1600
      8 H3         -1.1980    0.3720    2.1410 H         1 LIG         0.0800
      9 H4         -0.6850   -1.2290    2.6520 H         1 LIG         0.0800
     10 C4          0.9520    0.0780    2.0750 C.3       1 LIG        -0.0160
     11 H5          1.6430   -0.7540    1.9490 H         1 LIG         0.0800
     12 H6          1.1030    0.4630    3.0840 H         1 LIG         0.0800
     13 C5          1.1680    1.1990    1.0460 C.ar      1 LIG        -0.1440
     14 C6          1.9780    0.9840   -0.1090 C.ar      1 LIG         0.4100
     15 N2          2.6490   -0.1740   -0.2790 N.pl3     1 LIG        -0.8690
     16 H7          2.6760   -0.8590    0.4870 H         1 LIG         0.4000
     17 C7          3.4830   -0.4880   -1.4420 C.3       1 LIG         0.2090
     18 H8          2.9850   -0.1880   -2.3670 H         1 LIG         0.0800
     19 H9          4.4550    0.0060   -1.3710 H         1 LIG         0.0800
     20 C8          3.6520   -2.0120   -1.4240 C.3       1 LIG        -0.1600
     21 H10         2.6680   -2.4830   -1.3860 H         1 LIG         0.0800
     22 H11         4.1230   -2.3040   -2.3640 H         1 LIG         0.0800
     23 C9          4.5240   -2.5200   -0.2620 C.3       1 LIG        -0.1600
     24 H12         5.5110   -2.0540   -0.3150 H         1 LIG         0.0800
     25 H13         4.0710   -2.2620    0.6960 H         1 LIG         0.0800
     26 C10         4.6840   -4.0420   -0.3380 C.3       1 LIG        -0.2400
     27 H14         5.1610   -4.3230   -1.2790 H         1 LIG         0.0800
     28 H15         3.7080   -4.5260   -0.2720 H         1 LIG         0.0800
     29 H16         5.3060   -4.3870    0.4880 H         1 LIG         0.0800
     30 N3          2.1020    1.8810   -1.0650 N.ar      1 LIG        -0.6200
     31 C11         1.4380    3.0090   -0.9390 C.ar      1 LIG         0.7710
     32 N4          1.5140    3.9310   -1.8900 N.pl3     1 LIG        -0.9000
     33 H17         0.9980    4.8190   -1.8910 H         1 LIG         0.4000
     34 H18         2.0950    3.6960   -2.7110 H         1 LIG         0.4000
     35 N5          0.6800    3.2990    0.1240 N.ar      1 LIG        -0.1790
     36 H19         0.1790    4.1900    0.1200 H         1 LIG         0.4570
     37 C12         0.5430    2.4210    1.1580 C.ar      1 LIG         0.2170
     38 C13        -0.3420    2.9290    2.2840 C.3       1 LIG        -0.0970
     39 H20        -0.1790    2.3360    3.1830 H         1 LIG         0.0800
     40 H21        -1.3830    2.8480    1.9690 H         1 LIG         0.0800
     41 H22        -0.0910    3.9690    2.4990 H         1 LIG         0.0800
     42 C14        -2.6300    0.4890   -0.2420 C.2       1 LIG         0.5440
     43 O2         -1.9400    1.5040   -0.3270 O.2       1 LIG        -0.5700
     44 C15        -4.0430    0.3140   -0.4890 C.ar      1 LIG         0.0860
     45 C16        -4.3580   -1.0010   -0.2040 C.ar      1 LIG         0.0860
     46 C17        -5.6640   -1.4720   -0.3440 C.ar      1 LIG        -0.1500
     47 H23        -5.8960   -2.4840   -0.1230 H         1 LIG         0.1500
     48 C18        -6.6520   -0.5880   -0.7780 C.ar      1 LIG        -0.1500
     49 H24        -7.6510   -0.9280   -0.8910 H         1 LIG         0.1500
     50 C19        -6.3330    0.7460   -1.0670 C.ar      1 LIG        -0.1500
     51 H25        -7.0940    1.4080   -1.3980 H         1 LIG         0.1500
     52 C20        -5.0250    1.2060   -0.9250 C.ar      1 LIG        -0.1500
     53 H26        -4.7770    2.2140   -1.1440 H         1 LIG         0.1500
@<TRIPOS>BOND
  1   1   2  2   
  2   2   3  am  
  3   2  45  1   
  4   3   4  1   
  5   3  42  am  
  6   4   5  1   
  7   4   6  1   
  8   4   7  1   
  9   7   8  1   
 10   7   9  1   
 11   7  10  1   
 12  10  11  1   
 13  10  12  1   
 14  10  13  1   
 15  13  14  ar  
 16  13  37  ar  
 17  14  15  1   
 18  14  30  ar  
 19  15  16  1   
 20  15  17  1   
 21  17  18  1   
 22  17  19  1   
 23  17  20  1   
 24  20  21  1   
 25  20  22  1   
 26  20  23  1   
 27  23  24  1   
 28  23  25  1   
 29  23  26  1   
 30  26  27  1   
 31  26  28  1   
 32  26  29  1   
 33  30  31  ar  
 34  31  32  1   
 35  31  35  ar  
 36  32  33  1   
 37  32  34  1   
 38  35  36  1   
 39  35  37  ar  
 40  37  38  1   
 41  38  39  1   
 42  38  40  1   
 43  38  41  1   
 44  42  43  2   
 45  42  44  1   
 46  44  45  ar  
 47  44  52  ar  
 48  45  46  ar  
 49  46  47  1   
 50  46  48  ar  
 51  48  49  1   
 52  48  50  ar  
 53  50  51  1   
 54  50  52  ar  
 55  52  53  1   
@<TRIPOS>SUBSTRUCTURE
  1 ****   4 GROUP 4 **** **** 0

# MOE 2018.01 (io_trps.svl 2018.01)

@<TRIPOS>MOLECULE
CHEMBL4160925
51 53 1 0 0 
SMALL
USER_CHARGES


@<TRIPOS>ATOM
      1 O1         -6.4590   -1.2880    0.2330 O.2       1 LIG        -0.5700
      2 C1         -5.7270   -0.3110    0.2640 C.2       1 LIG         0.6340
      3 O2         -6.2900    0.9100    0.4160 O.3       1 LIG        -0.4300
      4 C2         -7.7300    1.0850    0.5430 C.3       1 LIG         0.0400
      5 H1         -7.9350    2.1510    0.6490 H         1 LIG         0.0800
      6 H2         -8.0690    0.5400    1.4250 H         1 LIG         0.0800
      7 H3         -8.2060    0.6920   -0.3570 H         1 LIG         0.0800
      8 C3         -4.2710   -0.4020    0.1440 C.ar      1 LIG         0.0860
      9 C4         -3.6640   -1.6470   -0.0140 C.ar      1 LIG        -0.1500
     10 H4         -4.2640   -2.5210   -0.0510 H         1 LIG         0.1500
     11 C5         -2.2740   -1.7340   -0.1250 C.ar      1 LIG         0.3610
     12 N1         -1.7050   -3.0150   -0.3060 N.ar      1 LIG        -0.1790
     13 H5         -2.3070   -3.8450   -0.3510 H         1 LIG         0.4570
     14 C6         -0.3900   -3.1990   -0.4290 C.ar      1 LIG         0.4610
     15 N2          0.0090   -4.4600   -0.6070 N.pl3     1 LIG        -0.9000
     16 H6         -0.6100   -5.2840   -0.6580 H         1 LIG         0.4000
     17 H7          1.0340   -4.6230   -0.7030 H         1 LIG         0.4000
     18 C7          0.4920   -2.0780   -0.3630 C.ar      1 LIG         0.2270
     19 N3          1.8520   -2.0630   -0.4530 N.2       1 LIG        -0.5650
     20 C8          2.1920   -0.8220   -0.3140 C.2       1 LIG         0.0060
     21 C9          3.6220   -0.3140   -0.3310 C.3       1 LIG         0.0200
     22 H8          4.2320   -1.0020   -0.9180 H         1 LIG         0.0800
     23 H9          3.6890    0.6810   -0.7690 H         1 LIG         0.0800
     24 C10         4.1030   -0.3070    1.1310 C.3       1 LIG        -0.1600
     25 H10         3.3900    0.2420    1.7470 H         1 LIG         0.0800
     26 H11         4.1330   -1.3360    1.4970 H         1 LIG         0.0800
     27 C11         5.4870    0.3360    1.3130 C.3       1 LIG        -0.1600
     28 H12         5.4620    1.3690    0.9600 H         1 LIG         0.0800
     29 H13         5.7220    0.3520    2.3800 H         1 LIG         0.0800
     30 C12         6.6040   -0.4220    0.5840 C.3       1 LIG        -0.2400
     31 H14         6.4640   -0.3680   -0.4960 H         1 LIG         0.0800
     32 H15         6.6120   -1.4680    0.8970 H         1 LIG         0.0800
     33 H16         7.5670    0.0260    0.8300 H         1 LIG         0.0800
     34 N4          1.0850   -0.0180   -0.1290 N.pl3     1 LIG         0.0480
     35 C13         1.1370    1.4350    0.0780 C.3       1 LIG         0.0960
     36 H17         0.3850    1.7210    0.7960 H         1 LIG         0.0800
     37 H18         2.1160    1.7300    0.4260 H         1 LIG         0.0800
     38 C14         0.8840    2.0790   -1.3050 C.3       1 LIG        -0.1600
     39 H19        -0.0450    1.7170   -1.7460 H         1 LIG         0.0800
     40 H20         1.7100    1.8530   -1.9800 H         1 LIG         0.0800
     41 C15         0.7900    3.5940   -1.1000 C.3       1 LIG         0.1200
     42 H21         0.6750    4.0800   -2.0720 H         1 LIG         0.0800
     43 H22         1.6990    3.9670   -0.6230 H         1 LIG         0.0800
     44 O3         -0.3380    3.8730   -0.2940 O.3       1 LIG        -0.6800
     45 H23        -0.4580    4.8270   -0.2270 H         1 LIG         0.4000
     46 C16        -0.0150   -0.8180   -0.1750 C.ar      1 LIG        -0.1520
     47 C17        -1.4400   -0.5900   -0.0690 C.ar      1 LIG         0.0000
     48 C18        -2.0760    0.6610    0.0760 C.ar      1 LIG        -0.1500
     49 H24        -1.5170    1.5570    0.1000 H         1 LIG         0.1500
     50 C19        -3.4540    0.7500    0.1830 C.ar      1 LIG        -0.1500
     51 H25        -3.9050    1.7050    0.2940 H         1 LIG         0.1500
@<TRIPOS>BOND
  1   1   2  2   
  2   2   3  1   
  3   2   8  1   
  4   3   4  1   
  5   4   5  1   
  6   4   6  1   
  7   4   7  1   
  8   8   9  ar  
  9   8  50  ar  
 10   9  10  1   
 11   9  11  ar  
 12  11  12  ar  
 13  11  47  ar  
 14  12  13  1   
 15  12  14  ar  
 16  14  15  1   
 17  14  18  ar  
 18  15  16  1   
 19  15  17  1   
 20  18  19  1   
 21  18  46  ar  
 22  19  20  2   
 23  20  21  1   
 24  20  34  1   
 25  21  22  1   
 26  21  23  1   
 27  21  24  1   
 28  24  25  1   
 29  24  26  1   
 30  24  27  1   
 31  27  28  1   
 32  27  29  1   
 33  27  30  1   
 34  30  31  1   
 35  30  32  1   
 36  30  33  1   
 37  34  35  1   
 38  34  46  1   
 39  35  36  1   
 40  35  37  1   
 41  35  38  1   
 42  38  39  1   
 43  38  40  1   
 44  38  41  1   
 45  41  42  1   
 46  41  43  1   
 47  41  44  1   
 48  44  45  1   
 49  46  47  ar  
 50  47  48  ar  
 51  48  49  1   
 52  48  50  ar  
 53  50  51  1   
@<TRIPOS>SUBSTRUCTURE
  1 ****  47 GROUP 4 **** **** 0

# MOE 2018.01 (io_trps.svl 2018.01)

@<TRIPOS>MOLECULE
CHEMBL4455899
33 35 1 0 0 
SMALL
USER_CHARGES


@<TRIPOS>ATOM
      1 O1          2.5320    4.1700    0.3280 O.2       1 LIG        -0.5700
      2 C1          2.1300    3.0240    0.1390 C.2       1 LIG         0.8060
      3 O2          3.0730    2.0430    0.2240 O.3       1 LIG        -0.2330
      4 C2          2.8000    0.6920    0.0400 C.ar      1 LIG         0.0820
      5 C3          1.4910    0.2510   -0.2540 C.ar      1 LIG         0.0530
      6 C4          0.4690    1.2820   -0.3500 C.2       1 LIG        -0.2050
      7 N1         -0.8700    1.2630   -0.6040 N.pl3     1 LIG         0.0480
      8 C5         -1.8090    0.1690   -0.8880 C.3       1 LIG         0.0960
      9 H1         -2.5380    0.5440   -1.5940 H         1 LIG         0.0800
     10 H2         -1.3090   -0.6910   -1.2950 H         1 LIG         0.0800
     11 C6         -2.5550   -0.1800    0.4280 C.3       1 LIG        -0.0800
     12 H3         -2.9740    0.7130    0.8990 H         1 LIG         0.0800
     13 C7         -3.7090   -1.1300    0.0760 C.3       1 LIG        -0.2400
     14 H4         -3.3290   -2.0410   -0.3890 H         1 LIG         0.0800
     15 H5         -4.4040   -0.6410   -0.6090 H         1 LIG         0.0800
     16 H6         -4.2550   -1.3990    0.9820 H         1 LIG         0.0800
     17 C8         -1.6220   -0.8800    1.4310 C.3       1 LIG        -0.2400
     18 H7         -1.2370   -1.8120    1.0180 H         1 LIG         0.0800
     19 H8         -2.1750   -1.1100    2.3430 H         1 LIG         0.0800
     20 H9         -0.7900   -0.2290    1.7020 H         1 LIG         0.0800
     21 C9         -1.3120    2.5490   -0.5630 C.2       1 LIG         0.0360
     22 H10        -2.3340    2.7770   -0.7330 H         1 LIG         0.1500
     23 N2         -0.3580    3.3800   -0.3020 N.2       1 LIG        -0.5650
     24 C10         0.7690    2.6080   -0.1630 C.2       1 LIG         0.1410
     25 C11         1.2990   -1.1310   -0.4230 C.ar      1 LIG        -0.1500
     26 H11         0.3510   -1.5270   -0.6380 H         1 LIG         0.1500
     27 C12         2.3770   -2.0010   -0.2980 C.ar      1 LIG         0.0820
     28 O3          2.1920   -3.3400   -0.4600 O.3       1 LIG        -0.5320
     29 H12         1.2630   -3.5590   -0.6630 H         1 LIG         0.4500
     30 C13         3.6610   -1.5470   -0.0090 C.ar      1 LIG        -0.1500
     31 H13         4.4590   -2.2390    0.0790 H         1 LIG         0.1500
     32 C14         3.8740   -0.1870    0.1630 C.ar      1 LIG        -0.1500
     33 H14         4.8420    0.1840    0.3840 H         1 LIG         0.1500
@<TRIPOS>BOND
  1   1   2  2   
  2   2   3  1   
  3   2  24  1   
  4   3   4  1   
  5   4   5  ar  
  6   4  32  ar  
  7   5   6  1   
  8   5  25  ar  
  9   6   7  1   
 10   6  24  2   
 11   7   8  1   
 12   7  21  1   
 13   8   9  1   
 14   8  10  1   
 15   8  11  1   
 16  11  12  1   
 17  11  13  1   
 18  11  17  1   
 19  13  14  1   
 20  13  15  1   
 21  13  16  1   
 22  17  18  1   
 23  17  19  1   
 24  17  20  1   
 25  21  22  1   
 26  21  23  2   
 27  23  24  1   
 28  25  26  1   
 29  25  27  ar  
 30  27  28  1   
 31  27  30  ar  
 32  28  29  1   
 33  30  31  1   
 34  30  32  ar  
 35  32  33  1   
@<TRIPOS>SUBSTRUCTURE
  1 ****   6 GROUP 4 **** **** 0

# MOE 2018.01 (io_trps.svl 2018.01)

@<TRIPOS>MOLECULE
CHEMBL1282
35 37 1 0 0 
SMALL
USER_CHARGES


@<TRIPOS>ATOM
      1 N1         -2.9210   -3.3140    0.3580 N.pl3     1 LIG        -0.9000
      2 H1         -3.9230   -3.4390    0.5680 H         1 LIG         0.4000
      3 H2         -2.3300   -4.1700    0.3200 H         1 LIG         0.4000
      4 C1         -2.3150   -2.1460    0.1310 C.ar      1 LIG         0.4610
      5 N2         -3.0960   -1.0670    0.1840 N.ar      1 LIG        -0.1790
      6 H3         -4.0900   -1.2080    0.3920 H         1 LIG         0.4570
      7 C2         -2.5960    0.2350   -0.0310 C.ar      1 LIG         0.3610
      8 C3         -1.2210    0.4300   -0.3120 C.ar      1 LIG         0.0000
      9 C4         -0.3920   -0.7560   -0.3750 C.ar      1 LIG        -0.1520
     10 N3          0.9250   -0.9960   -0.6210 N.pl3     1 LIG         0.0480
     11 C5          2.0480   -0.1020   -0.9380 C.3       1 LIG         0.0960
     12 H4          2.6780   -0.6120   -1.6550 H         1 LIG         0.0800
     13 H5          1.7130    0.8380   -1.3380 H         1 LIG         0.0800
     14 C6          2.8740    0.1060    0.3590 C.3       1 LIG        -0.0800
     15 H6          3.1340   -0.8460    0.8290 H         1 LIG         0.0800
     16 C7          4.1760    0.8250   -0.0240 C.3       1 LIG        -0.2400
     17 H7          3.9610    1.7910   -0.4850 H         1 LIG         0.0800
     18 H8          4.7510    0.2160   -0.7220 H         1 LIG         0.0800
     19 H9          4.7830    0.9900    0.8680 H         1 LIG         0.0800
     20 C8          2.1060    0.9710    1.3730 C.3       1 LIG        -0.2400
     21 H10         1.8790    1.9510    0.9530 H         1 LIG         0.0800
     22 H11         2.7180    1.1140    2.2660 H         1 LIG         0.0800
     23 H12         1.1830    0.4800    1.6790 H         1 LIG         0.0800
     24 C9          1.1170   -2.3490   -0.5360 C.2       1 LIG         0.0360
     25 H13         2.0810   -2.7680   -0.6910 H         1 LIG         0.1500
     26 N4          0.0250   -2.9810   -0.2580 N.2       1 LIG        -0.5650
     27 C10        -0.9240   -2.0030   -0.1570 C.ar      1 LIG         0.2270
     28 C11        -0.7870    1.7580   -0.5000 C.ar      1 LIG        -0.1500
     29 H14         0.2250    1.9760   -0.7000 H         1 LIG         0.1500
     30 C12        -1.6810    2.8150   -0.4230 C.ar      1 LIG        -0.1500
     31 H15        -1.3380    3.8100   -0.5690 H         1 LIG         0.1500
     32 C13        -3.0360    2.5910   -0.1510 C.ar      1 LIG        -0.1500
     33 H16        -3.7020    3.4170   -0.0980 H         1 LIG         0.1500
     34 C14        -3.5000    1.3040    0.0470 C.ar      1 LIG        -0.1500
     35 H17        -4.5260    1.1380    0.2540 H         1 LIG         0.1500
@<TRIPOS>BOND
  1   1   2  1   
  2   1   3  1   
  3   1   4  1   
  4   4   5  ar  
  5   4  27  ar  
  6   5   6  1   
  7   5   7  ar  
  8   7   8  ar  
  9   7  34  ar  
 10   8   9  ar  
 11   8  28  ar  
 12   9  10  1   
 13   9  27  ar  
 14  10  11  1   
 15  10  24  1   
 16  11  12  1   
 17  11  13  1   
 18  11  14  1   
 19  14  15  1   
 20  14  16  1   
 21  14  20  1   
 22  16  17  1   
 23  16  18  1   
 24  16  19  1   
 25  20  21  1   
 26  20  22  1   
 27  20  23  1   
 28  24  25  1   
 29  24  26  2   
 30  26  27  1   
 31  28  29  1   
 32  28  30  ar  
 33  30  31  1   
 34  30  32  ar  
 35  32  33  1   
 36  32  34  ar  
 37  34  35  1   
@<TRIPOS>SUBSTRUCTURE
  1 ****   9 GROUP 4 **** **** 0

# MOE 2018.01 (io_trps.svl 2018.01)

@<TRIPOS>MOLECULE
CHEMBL4101498
42 44 1 0 0 
SMALL
USER_CHARGES


@<TRIPOS>ATOM
      1 O1          1.3610   -2.2590    0.3710 O.3       1 LIG        -0.5600
      2 C1          1.6890   -2.2620   -1.0140 C.3       1 LIG         0.1200
      3 H1          2.5560   -1.6300   -1.2150 H         1 LIG         0.0800
      4 H2          1.9310   -3.2830   -1.3190 H         1 LIG         0.0800
      5 C2          0.4840   -1.7910   -1.8530 C.3       1 LIG         0.2090
      6 H3          0.6690   -2.0910   -2.8880 H         1 LIG         0.0800
      7 H4         -0.4100   -2.3190   -1.5240 H         1 LIG         0.0800
      8 N1          0.2970   -0.2940   -1.8130 N.pl3     1 LIG        -0.8690
      9 H5          0.4850    0.0640   -2.7730 H         1 LIG         0.4000
     10 C3          0.9170    0.4960   -0.9120 C.ar      1 LIG         0.4100
     11 N2          1.8510    1.2410   -1.4510 N.ar      1 LIG        -0.6200
     12 C4          2.5680    2.0490   -0.6590 C.ar      1 LIG         0.7710
     13 N3          3.5310    2.7890   -1.1930 N.pl3     1 LIG        -0.9000
     14 H6          4.1340    3.4430   -0.6760 H         1 LIG         0.4000
     15 H7          3.6850    2.6950   -2.2120 H         1 LIG         0.4000
     16 N4          2.3740    2.1680    0.6640 N.ar      1 LIG        -0.1250
     17 H8          2.9770    2.8020    1.1960 H         1 LIG         0.4570
     18 C5          1.3600    1.4490    1.2610 C.ar      1 LIG         0.3070
     19 C6          0.6190    0.6080    0.4700 C.ar      1 LIG        -0.1520
     20 N5         -0.3410    0.0450    1.3290 N.pl3     1 LIG         0.0480
     21 C7         -1.3980   -0.9250    1.0260 C.3       1 LIG         0.2390
     22 H9         -1.7540   -1.3540    1.9530 H         1 LIG         0.0800
     23 H10        -1.0330   -1.6850    0.3580 H         1 LIG         0.0800
     24 C8         -2.5300   -0.1440    0.3780 C.ar      1 LIG         0.2170
     25 N6         -2.3380    0.2630   -0.8970 N.ar      1 LIG        -0.1790
     26 H11        -1.4190    0.0360   -1.3590 H         1 LIG         0.4570
     27 C9         -3.2550    0.9570   -1.5980 C.ar      1 LIG         0.2110
     28 H12        -2.9800    1.2170   -2.5930 H         1 LIG         0.1500
     29 C10        -4.4620    1.2820   -0.9950 C.ar      1 LIG        -0.1500
     30 H13        -5.1960    1.8300   -1.5340 H         1 LIG         0.1500
     31 C11        -4.7080    0.8920    0.3160 C.ar      1 LIG        -0.1500
     32 H14        -5.6300    1.1370    0.7870 H         1 LIG         0.1500
     33 C12        -3.7330    0.1750    1.0000 C.ar      1 LIG        -0.1500
     34 H15        -3.9130   -0.1280    2.0030 H         1 LIG         0.1500
     35 C13        -0.1560    0.5580    2.5970 C.2       1 LIG        -0.3020
     36 H16        -0.7720    0.2690    3.4140 H         1 LIG         0.1500
     37 C14         0.8980    1.4280    2.5740 C.2       1 LIG        -0.1500
     38 H17         1.2760    1.9740    3.4020 H         1 LIG         0.1500
     39 C15         2.3910   -2.8150    1.1790 C.3       1 LIG         0.0400
     40 H18         2.0880   -2.7810    2.2270 H         1 LIG         0.0800
     41 H19         3.3170   -2.2490    1.0650 H         1 LIG         0.0800
     42 H20         2.5680   -3.8570    0.9070 H         1 LIG         0.0800
@<TRIPOS>BOND
  1   1   2  1   
  2   1  39  1   
  3   2   3  1   
  4   2   4  1   
  5   2   5  1   
  6   5   6  1   
  7   5   7  1   
  8   5   8  1   
  9   8   9  1   
 10   8  10  1   
 11  10  11  ar  
 12  10  19  ar  
 13  11  12  ar  
 14  12  13  1   
 15  12  16  ar  
 16  13  14  1   
 17  13  15  1   
 18  16  17  1   
 19  16  18  ar  
 20  18  19  ar  
 21  18  37  1   
 22  19  20  1   
 23  20  21  1   
 24  20  35  1   
 25  21  22  1   
 26  21  23  1   
 27  21  24  1   
 28  24  25  ar  
 29  24  33  ar  
 30  25  26  1   
 31  25  27  ar  
 32  27  28  1   
 33  27  29  ar  
 34  29  30  1   
 35  29  31  ar  
 36  31  32  1   
 37  31  33  ar  
 38  33  34  1   
 39  35  36  1   
 40  35  37  2   
 41  37  38  1   
 42  39  40  1   
 43  39  41  1   
 44  39  42  1   
@<TRIPOS>SUBSTRUCTURE
  1 ****  19 GROUP 4 **** **** 0

# MOE 2018.01 (io_trps.svl 2018.01)

@<TRIPOS>MOLECULE
CHEMBL549344
49 51 1 0 0 
SMALL
USER_CHARGES


@<TRIPOS>ATOM
      1 S1          4.4670    0.2460    1.0520 S.o2      1 LIG         1.3330
      2 O1          4.3140   -0.0320   -0.3310 O.2       1 LIG        -0.6500
      3 O2          5.7200    0.7370    1.4930 O.2       1 LIG        -0.6500
      4 N1          3.2980    1.2880    1.5300 N.am      1 LIG        -0.9140
      5 H1          3.4060    1.6720    2.4660 H         1 LIG         0.4200
      6 C1          1.9240    1.1540    1.0730 C.3       1 LIG         0.1960
      7 H2          1.7110    0.1290    0.7710 H         1 LIG         0.0800
      8 H3          1.2330    1.4570    1.8620 H         1 LIG         0.0800
      9 C2          1.8090    2.1220   -0.1130 C.3       1 LIG        -0.1600
     10 H4          2.1470    3.1000    0.2350 H         1 LIG         0.0800
     11 H5          2.4900    1.8210   -0.9110 H         1 LIG         0.0800
     12 C3          0.3780    2.3040   -0.6640 C.3       1 LIG        -0.1600
     13 H6          0.3430    3.2700   -1.1720 H         1 LIG         0.0800
     14 H7         -0.3410    2.3310    0.1550 H         1 LIG         0.0800
     15 C4          0.0320    1.2200   -1.7220 C.3       1 LIG         0.0960
     16 H8          0.8840    1.0690   -2.3680 H         1 LIG         0.0800
     17 H9         -0.8140    1.5450   -2.3090 H         1 LIG         0.0800
     18 N2         -0.3410   -0.0300   -1.0350 N.pl3     1 LIG         0.0480
     19 C5          0.4310   -1.1780   -1.0200 C.2       1 LIG         0.0060
     20 C6          1.7440   -1.3410   -1.7700 C.3       1 LIG         0.0200
     21 H10         2.3150   -0.4160   -1.8120 H         1 LIG         0.0800
     22 H11         2.3500   -2.1040   -1.2790 H         1 LIG         0.0800
     23 C7          1.3840   -1.8060   -3.1860 C.3       1 LIG        -0.2400
     24 H12         0.7760   -1.0560   -3.6910 H         1 LIG         0.0800
     25 H13         0.8300   -2.7440   -3.1360 H         1 LIG         0.0800
     26 H14         2.2990   -1.9650   -3.7580 H         1 LIG         0.0800
     27 N3         -0.1230   -2.1050   -0.3090 N.2       1 LIG        -0.5650
     28 C8         -1.3000   -1.5740    0.1290 C.ar      1 LIG         0.2270
     29 C9         -2.3100   -2.1910    0.9290 C.ar      1 LIG         0.4610
     30 N4         -2.2370   -3.4350    1.4060 N.pl3     1 LIG        -0.9000
     31 H15        -2.9680   -3.9090    1.9620 H         1 LIG         0.4000
     32 H16        -1.3900   -3.9890    1.1610 H         1 LIG         0.4000
     33 N5         -3.4170   -1.5150    1.2390 N.ar      1 LIG        -0.1790
     34 H17        -4.1200   -1.9890    1.8150 H         1 LIG         0.4570
     35 C10        -3.6460   -0.1980    0.7870 C.ar      1 LIG         0.3610
     36 C11        -2.6790    0.4520   -0.0210 C.ar      1 LIG         0.0000
     37 C12        -1.4710   -0.2900   -0.3210 C.ar      1 LIG        -0.1520
     38 C13        -2.9880    1.7530   -0.4710 C.ar      1 LIG        -0.1500
     39 H18        -2.3230    2.2860   -1.0940 H         1 LIG         0.1500
     40 C14        -4.1780    2.3640   -0.1100 C.ar      1 LIG        -0.1500
     41 H19        -4.3950    3.3460   -0.4540 H         1 LIG         0.1500
     42 C15        -5.1070    1.7050    0.7040 C.ar      1 LIG        -0.1500
     43 H20        -6.0120    2.1950    0.9690 H         1 LIG         0.1500
     44 C16        -4.8470    0.4230    1.1550 C.ar      1 LIG        -0.1500
     45 H21        -5.5550   -0.0750    1.7670 H         1 LIG         0.1500
     46 C17         4.1210   -1.2420    1.9450 C.3       1 LIG        -0.1350
     47 H22         3.1670   -1.6780    1.6950 H         1 LIG         0.0800
     48 H23         4.1410   -1.1110    3.0160 H         1 LIG         0.0800
     49 H24         4.8470   -2.0150    1.7430 H         1 LIG         0.0800
@<TRIPOS>BOND
  1   1   2  2   
  2   1   3  2   
  3   1   4  am  
  4   1  46  1   
  5   4   5  1   
  6   4   6  1   
  7   6   7  1   
  8   6   8  1   
  9   6   9  1   
 10   9  10  1   
 11   9  11  1   
 12   9  12  1   
 13  12  13  1   
 14  12  14  1   
 15  12  15  1   
 16  15  16  1   
 17  15  17  1   
 18  15  18  1   
 19  18  19  1   
 20  18  37  1   
 21  19  20  1   
 22  19  27  2   
 23  20  21  1   
 24  20  22  1   
 25  20  23  1   
 26  23  24  1   
 27  23  25  1   
 28  23  26  1   
 29  27  28  1   
 30  28  29  ar  
 31  28  37  ar  
 32  29  30  1   
 33  29  33  ar  
 34  30  31  1   
 35  30  32  1   
 36  33  34  1   
 37  33  35  ar  
 38  35  36  ar  
 39  35  44  ar  
 40  36  37  ar  
 41  36  38  ar  
 42  38  39  1   
 43  38  40  ar  
 44  40  41  1   
 45  40  42  ar  
 46  42  43  1   
 47  42  44  ar  
 48  44  45  1   
 49  46  47  1   
 50  46  48  1   
 51  46  49  1   
@<TRIPOS>SUBSTRUCTURE
  1 ****  18 GROUP 4 **** **** 0

# MOE 2018.01 (io_trps.svl 2018.01)

@<TRIPOS>MOLECULE
CHEMBL4084584
49 49 1 0 0 
SMALL
USER_CHARGES


@<TRIPOS>ATOM
      1 O1          4.7610    0.7580    0.0740 O.3       1 LIG        -0.6800
      2 H1          5.6160    0.3310    0.1410 H         1 LIG         0.4000
      3 C1          3.8000   -0.2200   -0.1900 C.3       1 LIG         0.2800
      4 C2          2.4750    0.5390   -0.3980 C.3       1 LIG        -0.1600
      5 H2          2.3400    1.2350    0.4320 H         1 LIG         0.0800
      6 H3          2.6010    1.1560   -1.2900 H         1 LIG         0.0800
      7 C3          1.1850   -0.2880   -0.5820 C.3       1 LIG        -0.1600
      8 H4          0.5150    0.2930   -1.2190 H         1 LIG         0.0800
      9 H5          1.4050   -1.2180   -1.1060 H         1 LIG         0.0800
     10 C4          0.4640   -0.5780    0.7470 C.3       1 LIG        -0.0160
     11 H6          0.2640    0.3530    1.2820 H         1 LIG         0.0800
     12 H7          1.0790   -1.1970    1.3970 H         1 LIG         0.0800
     13 C5         -0.8440   -1.2820    0.3900 C.ar      1 LIG        -0.1440
     14 C6         -1.9940   -0.5310    0.0150 C.ar      1 LIG         0.4100
     15 N1         -1.9410    0.8120   -0.0460 N.pl3     1 LIG        -0.8690
     16 H8         -1.0600    1.2910    0.1880 H         1 LIG         0.4000
     17 C7         -3.0670    1.6760   -0.4000 C.3       1 LIG         0.2090
     18 H9         -3.5300    1.3390   -1.3300 H         1 LIG         0.0800
     19 H10        -3.8120    1.6930    0.3990 H         1 LIG         0.0800
     20 C8         -2.4630    3.0710   -0.6000 C.3       1 LIG        -0.1600
     21 H11        -1.6560    3.0130   -1.3330 H         1 LIG         0.0800
     22 H12        -3.2420    3.7140   -1.0130 H         1 LIG         0.0800
     23 C9         -1.9430    3.7080    0.7020 C.3       1 LIG        -0.1600
     24 H13        -2.7570    3.7690    1.4280 H         1 LIG         0.0800
     25 H14        -1.1430    3.1020    1.1290 H         1 LIG         0.0800
     26 C10        -1.4050    5.1170    0.4320 C.3       1 LIG        -0.2400
     27 H15        -2.1960    5.7510    0.0290 H         1 LIG         0.0800
     28 H16        -0.5800    5.0740   -0.2800 H         1 LIG         0.0800
     29 H17        -1.0440    5.5550    1.3640 H         1 LIG         0.0800
     30 N2         -3.1430   -1.1000   -0.2900 N.ar      1 LIG        -0.6200
     31 C11        -3.2080   -2.4120   -0.2490 C.ar      1 LIG         0.7710
     32 N3         -4.3440   -3.0270   -0.5460 N.pl3     1 LIG        -0.9000
     33 H18        -4.4900   -4.0440   -0.5370 H         1 LIG         0.4000
     34 H19        -5.1410   -2.4200   -0.8000 H         1 LIG         0.4000
     35 N4         -2.1690   -3.1910    0.0820 N.ar      1 LIG        -0.1790
     36 H20        -2.3190   -4.2030    0.0830 H         1 LIG         0.4570
     37 C12        -0.9570   -2.6510    0.4070 C.ar      1 LIG         0.2170
     38 C13         0.1320   -3.6470    0.7630 C.3       1 LIG        -0.0960
     39 H21         0.3250   -3.5710    1.8340 H         1 LIG         0.0800
     40 H22         1.0310   -3.3880    0.2020 H         1 LIG         0.0800
     41 H23        -0.1730   -4.6630    0.5080 H         1 LIG         0.0800
     42 C14         4.2580   -0.9560   -1.4510 C.3       1 LIG        -0.2400
     43 H24         3.5640   -1.7580   -1.6970 H         1 LIG         0.0800
     44 H25         5.2470   -1.3870   -1.2970 H         1 LIG         0.0800
     45 H26         4.3050   -0.2590   -2.2880 H         1 LIG         0.0800
     46 C15         3.8080   -1.1670    1.0090 C.3       1 LIG        -0.2400
     47 H27         3.1640   -2.0220    0.8160 H         1 LIG         0.0800
     48 H28         3.4640   -0.6360    1.8970 H         1 LIG         0.0800
     49 H29         4.8190   -1.5320    1.1900 H         1 LIG         0.0800
@<TRIPOS>BOND
  1   1   2  1   
  2   1   3  1   
  3   3   4  1   
  4   3  42  1   
  5   3  46  1   
  6   4   5  1   
  7   4   6  1   
  8   4   7  1   
  9   7   8  1   
 10   7   9  1   
 11   7  10  1   
 12  10  11  1   
 13  10  12  1   
 14  10  13  1   
 15  13  14  ar  
 16  13  37  ar  
 17  14  15  1   
 18  14  30  ar  
 19  15  16  1   
 20  15  17  1   
 21  17  18  1   
 22  17  19  1   
 23  17  20  1   
 24  20  21  1   
 25  20  22  1   
 26  20  23  1   
 27  23  24  1   
 28  23  25  1   
 29  23  26  1   
 30  26  27  1   
 31  26  28  1   
 32  26  29  1   
 33  30  31  ar  
 34  31  32  1   
 35  31  35  ar  
 36  32  33  1   
 37  32  34  1   
 38  35  36  1   
 39  35  37  ar  
 40  37  38  1   
 41  38  39  1   
 42  38  40  1   
 43  38  41  1   
 44  42  43  1   
 45  42  44  1   
 46  42  45  1   
 47  46  47  1   
 48  46  48  1   
 49  46  49  1   
@<TRIPOS>SUBSTRUCTURE
  1 ****  10 GROUP 4 **** **** 0

# MOE 2018.01 (io_trps.svl 2018.01)

@<TRIPOS>MOLECULE
CHEMBL4161057
56 58 1 0 0 
SMALL
USER_CHARGES


@<TRIPOS>ATOM
      1 O1          0.0250    0.8930   -1.5940 O.2       1 LIG        -0.5700
      2 C1         -0.3680    1.9510   -1.1080 C.2       1 LIG         0.6590
      3 O2          0.2630    2.5140   -0.0680 O.3       1 LIG        -0.4300
      4 C2          1.5570    2.0680    0.4110 C.3       1 LIG         0.2000
      5 C3          1.3670    1.2530    1.7120 C.3       1 LIG         0.0960
      6 H1          0.5010    1.5960    2.2440 H         1 LIG         0.0800
      7 H2          2.2370    1.3680    2.3380 H         1 LIG         0.0800
      8 N1          1.2540   -0.1590    1.3090 N.pl3     1 LIG         0.0480
      9 C4          2.3460   -1.0000    1.1420 C.2       1 LIG         0.0060
     10 C5          3.7950   -0.6450    1.4790 C.3       1 LIG         0.0200
     11 H3          3.9390    0.3960    1.7500 H         1 LIG         0.0800
     12 H4          4.1120   -1.2690    2.3160 H         1 LIG         0.0800
     13 C6          4.6810   -0.9600    0.2580 C.3       1 LIG        -0.1600
     14 H5          5.7230   -0.8150    0.5480 H         1 LIG         0.0800
     15 H6          4.5590   -2.0090   -0.0200 H         1 LIG         0.0800
     16 C7          4.3790   -0.0710   -0.9600 C.3       1 LIG        -0.1600
     17 H7          3.3590   -0.2530   -1.3040 H         1 LIG         0.0800
     18 H8          4.4830    0.9800   -0.6850 H         1 LIG         0.0800
     19 C8          5.3470   -0.3820   -2.1060 C.3       1 LIG        -0.2400
     20 H9          5.2500   -1.4280   -2.4020 H         1 LIG         0.0800
     21 H10         6.3740   -0.1900   -1.7940 H         1 LIG         0.0800
     22 H11         5.1130    0.2500   -2.9640 H         1 LIG         0.0800
     23 N2          1.9790   -2.1430    0.6620 N.2       1 LIG        -0.5650
     24 C9          0.6350   -2.0480    0.4780 C.ar      1 LIG         0.2270
     25 C10        -0.2320   -2.9880   -0.1540 C.ar      1 LIG         0.4610
     26 N3          0.1570   -4.1770   -0.6180 N.pl3     1 LIG        -0.9000
     27 H12        -0.4480   -4.8650   -1.0910 H         1 LIG         0.4000
     28 H13         1.1660   -4.4160   -0.5140 H         1 LIG         0.4000
     29 N4         -1.5190   -2.6910   -0.3250 N.ar      1 LIG        -0.1790
     30 H14        -2.0990   -3.3730   -0.8250 H         1 LIG         0.4570
     31 C11        -2.0850   -1.4900    0.1580 C.ar      1 LIG         0.3610
     32 C12        -1.2740   -0.5540    0.8470 C.ar      1 LIG         0.0000
     33 C13         0.1430   -0.8480    0.9220 C.ar      1 LIG        -0.1520
     34 C14        -1.9270    0.5710    1.3960 C.ar      1 LIG        -0.1500
     35 H15        -1.3980    1.2820    1.9670 H         1 LIG         0.1500
     36 C15        -3.2830    0.7710    1.2030 C.ar      1 LIG        -0.1500
     37 H16        -3.7500    1.6300    1.6190 H         1 LIG         0.1500
     38 C16        -4.0660   -0.1420    0.4650 C.ar      1 LIG         0.0860
     39 C17        -5.4930    0.1140    0.2600 C.2       1 LIG         0.6340
     40 O3         -6.0650    1.1220    0.6400 O.2       1 LIG        -0.5700
     41 O4         -6.2180   -0.8290   -0.3920 O.3       1 LIG        -0.4300
     42 C18        -7.6490   -0.6640   -0.6200 C.3       1 LIG         0.0400
     43 H17        -8.0100   -1.5330   -1.1700 H         1 LIG         0.0800
     44 H18        -7.8050    0.2470   -1.1990 H         1 LIG         0.0800
     45 H19        -8.1470   -0.5900    0.3480 H         1 LIG         0.0800
     46 C19        -3.4520   -1.2840   -0.0490 C.ar      1 LIG        -0.1500
     47 H20        -4.0240   -1.9930   -0.5920 H         1 LIG         0.1500
     48 C20         2.3260    3.3460    0.7550 C.3       1 LIG        -0.2400
     49 H21         3.3230    3.0990    1.1200 H         1 LIG         0.0800
     50 H22         1.7880    3.9180    1.5120 H         1 LIG         0.0800
     51 H23         2.4250    3.9570   -0.1430 H         1 LIG         0.0800
     52 C21        -1.6300    2.6180   -1.6140 C.3       1 LIG        -0.1790
     53 H24        -2.3070    2.7870   -0.7790 H         1 LIG         0.0800
     54 H25        -2.1070    1.9820   -2.3580 H         1 LIG         0.0800
     55 H26        -1.3670    3.5750   -2.0600 H         1 LIG         0.0800
     56 H27         2.1210    1.5210   -0.3490 H         1 LIG         0.0800
@<TRIPOS>BOND
  1   1   2  2   
  2   2   3  1   
  3   2  52  1   
  4   3   4  1   
  5   4   5  1   
  6   4  48  1   
  7   4  56  1   
  8   5   6  1   
  9   5   7  1   
 10   5   8  1   
 11   8   9  1   
 12   8  33  1   
 13   9  10  1   
 14   9  23  2   
 15  10  11  1   
 16  10  12  1   
 17  10  13  1   
 18  13  14  1   
 19  13  15  1   
 20  13  16  1   
 21  16  17  1   
 22  16  18  1   
 23  16  19  1   
 24  19  20  1   
 25  19  21  1   
 26  19  22  1   
 27  23  24  1   
 28  24  25  ar  
 29  24  33  ar  
 30  25  26  1   
 31  25  29  ar  
 32  26  27  1   
 33  26  28  1   
 34  29  30  1   
 35  29  31  ar  
 36  31  32  ar  
 37  31  46  ar  
 38  32  33  ar  
 39  32  34  ar  
 40  34  35  1   
 41  34  36  ar  
 42  36  37  1   
 43  36  38  ar  
 44  38  39  1   
 45  38  46  ar  
 46  39  40  2   
 47  39  41  1   
 48  41  42  1   
 49  42  43  1   
 50  42  44  1   
 51  42  45  1   
 52  46  47  1   
 53  48  49  1   
 54  48  50  1   
 55  48  51  1   
 56  52  53  1   
 57  52  54  1   
 58  52  55  1   
@<TRIPOS>SUBSTRUCTURE
  1 ****  32 GROUP 4 **** **** 0

# MOE 2018.01 (io_trps.svl 2018.01)

@<TRIPOS>MOLECULE
CHEMBL213396
52 54 1 0 0 
SMALL
USER_CHARGES


@<TRIPOS>ATOM
      1 O1         -4.8780    0.6660   -1.1460 O.3       1 LIG        -0.5650
      2 C1         -5.8350    1.0990   -0.1830 C.3       1 LIG         0.1120
      3 H1         -5.6830    2.1560    0.0420 H         1 LIG         0.0720
      4 H2         -6.8410    0.9640   -0.5820 H         1 LIG         0.0720
      5 C2         -5.7220    0.2960    1.1220 C.3       1 LIG         0.1120
      6 H3         -5.8380   -0.7690    0.9190 H         1 LIG         0.0720
      7 H4         -6.5000    0.6190    1.8130 H         1 LIG         0.0720
      8 O2         -4.4130    0.6020    1.6870 O.3       1 LIG        -0.3680
      9 C3         -3.3050   -0.0320    1.2390 C.ar      1 LIG         0.6990
     10 N1         -3.3850   -1.3710    0.9970 N.ar      1 LIG        -0.6240
     11 C4         -2.3230   -1.9770    0.5190 C.ar      1 LIG         0.4460
     12 N2         -2.4600   -3.3180    0.2970 N.pl3     1 LIG        -0.9030
     13 H5         -3.3490   -3.6990    0.6600 H         1 LIG         0.3940
     14 H6         -1.6390   -3.9250    0.4180 H         1 LIG         0.3940
     15 C5         -1.1580   -1.2390    0.2740 C.ar      1 LIG         0.3030
     16 N3          0.1120   -1.4880   -0.2480 N.pl3     1 LIG        -0.7040
     17 H7          0.4980   -2.3680   -0.6100 H         1 LIG         0.4450
     18 C6          0.7910   -0.3550   -0.2380 C.cat     1 LIG         1.0690
     19 N4          2.0330   -0.2510   -0.6820 N.pl3     1 LIG        -0.7180
     20 H8          2.5070    0.6470   -0.4610 H         1 LIG         0.4450
     21 C7          2.8740   -1.3330   -1.1950 C.3       1 LIG         0.1600
     22 H9          2.2960   -2.0680   -1.7590 H         1 LIG         0.0720
     23 H10         3.6560   -0.9220   -1.8380 H         1 LIG         0.0720
     24 C8          3.5050   -1.9760    0.0420 C.3       1 LIG        -0.1670
     25 H11         2.7300   -2.4100    0.6750 H         1 LIG         0.0720
     26 H12         4.0460   -1.2220    0.6180 H         1 LIG         0.0720
     27 C9          4.4890   -3.0780   -0.3510 C.3       1 LIG         0.1120
     28 H13         5.3700   -2.6410   -0.8290 H         1 LIG         0.0720
     29 H14         4.0150   -3.7890   -1.0300 H         1 LIG         0.0720
     30 O3          4.8540   -3.7340    0.8410 O.3       1 LIG        -0.6840
     31 H15         5.5580   -4.3690    0.6670 H         1 LIG         0.3940
     32 N5          0.0400    0.6300    0.2760 N.pl3     1 LIG        -0.7670
     33 C10         0.2850    2.0730    0.4520 C.3       1 LIG         0.4920
     34 H16        -0.1400    2.6180   -0.3820 H         1 LIG         0.0720
     35 H17        -0.1270    2.4040    1.3990 H         1 LIG         0.0720
     36 C11         1.7850    2.2860    0.4880 C.ar      1 LIG        -0.1510
     37 C12         2.4440    2.8360   -0.6130 C.ar      1 LIG        -0.1570
     38 H18         1.8970    3.1670   -1.4610 H         1 LIG         0.1430
     39 C13         3.8300    2.9510   -0.6130 C.ar      1 LIG        -0.1570
     40 H19         4.3300    3.3720   -1.4490 H         1 LIG         0.1430
     41 C14         4.5640    2.5250    0.4880 C.ar      1 LIG        -0.1570
     42 H20         5.6210    2.6170    0.4890 H         1 LIG         0.1430
     43 C15         3.9130    1.9930    1.5950 C.ar      1 LIG        -0.1570
     44 H21         4.4750    1.6800    2.4390 H         1 LIG         0.1430
     45 C16         2.5270    1.8770    1.5980 C.ar      1 LIG        -0.1570
     46 H22         2.0420    1.4700    2.4510 H         1 LIG         0.1430
     47 C17        -1.1840    0.0900    0.5830 C.ar      1 LIG         0.6150
     48 N6         -2.2310    0.7340    1.0800 N.ar      1 LIG        -0.5840
     49 C18        -4.9990    1.3570   -2.3790 C.3       1 LIG         0.0320
     50 H23        -4.2470    0.9850   -3.0750 H         1 LIG         0.0720
     51 H24        -4.8430    2.4270   -2.2310 H         1 LIG         0.0720
     52 H25        -5.9870    1.1890   -2.8110 H         1 LIG         0.0720
@<TRIPOS>BOND
  1   1   2  1   
  2   1  49  1   
  3   2   3  1   
  4   2   4  1   
  5   2   5  1   
  6   5   6  1   
  7   5   7  1   
  8   5   8  1   
  9   8   9  1   
 10   9  10  ar  
 11   9  48  ar  
 12  10  11  ar  
 13  11  12  1   
 14  11  15  ar  
 15  12  13  1   
 16  12  14  1   
 17  15  16  1   
 18  15  47  ar  
 19  16  17  1   
 20  16  18  ar  
 21  18  19  ar  
 22  18  32  ar  
 23  19  20  1   
 24  19  21  1   
 25  21  22  1   
 26  21  23  1   
 27  21  24  1   
 28  24  25  1   
 29  24  26  1   
 30  24  27  1   
 31  27  28  1   
 32  27  29  1   
 33  27  30  1   
 34  30  31  1   
 35  32  33  1   
 36  32  47  1   
 37  33  34  1   
 38  33  35  1   
 39  33  36  1   
 40  36  37  ar  
 41  36  45  ar  
 42  37  38  1   
 43  37  39  ar  
 44  39  40  1   
 45  39  41  ar  
 46  41  42  1   
 47  41  43  ar  
 48  43  44  1   
 49  43  45  ar  
 50  45  46  1   
 51  47  48  ar  
 52  49  50  1   
 53  49  51  1   
 54  49  52  1   
@<TRIPOS>SUBSTRUCTURE
  1 ****  32 GROUP 4 **** **** 0

# MOE 2018.01 (io_trps.svl 2018.01)

@<TRIPOS>MOLECULE
CHEMBL3221818
34 36 1 0 0 
SMALL
USER_CHARGES


@<TRIPOS>ATOM
      1 O1          0.7050    3.4140    0.6240 O.2       1 LIG        -0.5700
      2 C1         -0.0540    2.4940    0.4340 C.2       1 LIG         0.5690
      3 N1          0.1520    1.2520    0.9880 N.am      1 LIG        -0.4770
      4 C2          1.3560    0.8630    1.7220 C.3       1 LIG         0.2840
      5 H1          1.8500    1.7370    2.1270 H         1 LIG         0.0800
      6 H2          1.1040    0.1400    2.4860 H         1 LIG         0.0800
      7 C3          2.2550    0.2180    0.6820 C.ar      1 LIG        -0.1440
      8 C4          2.3430   -1.1710    0.5870 C.ar      1 LIG        -0.1500
      9 H3          1.7880   -1.7860    1.2490 H         1 LIG         0.1500
     10 C5          3.1590   -1.7600   -0.3750 C.ar      1 LIG        -0.1500
     11 H4          3.2260   -2.8160   -0.4400 H         1 LIG         0.1500
     12 C6          3.8900   -0.9640   -1.2490 C.ar      1 LIG        -0.1500
     13 H5          4.5130   -1.4110   -1.9810 H         1 LIG         0.1500
     14 C7          3.8080    0.4220   -1.1590 C.ar      1 LIG        -0.1500
     15 H6          4.3680    1.0300   -1.8230 H         1 LIG         0.1500
     16 C8          2.9940    1.0110   -0.1970 C.ar      1 LIG        -0.1500
     17 H7          2.9380    2.0690   -0.1340 H         1 LIG         0.1500
     18 C9         -0.8480    0.4290    0.6010 C.ar      1 LIG         0.4270
     19 N2         -0.9800   -0.8730    0.9580 N.ar      1 LIG        -0.6200
     20 C10        -1.9870   -1.5440    0.4830 C.ar      1 LIG         0.5280
     21 C11        -2.2200   -3.0000    0.8080 C.3       1 LIG        -0.0960
     22 H8         -1.4150   -3.3340    1.4650 H         1 LIG         0.0800
     23 H9         -2.2080   -3.5740   -0.1180 H         1 LIG         0.0800
     24 H10        -3.1800   -3.0980    1.3160 H         1 LIG         0.0800
     25 N3         -2.9030   -0.9530   -0.3510 N.ar      1 LIG        -0.1790
     26 H11        -3.6880   -1.5040   -0.7150 H         1 LIG         0.4570
     27 C12        -2.8000    0.3410   -0.7060 C.ar      1 LIG         0.4610
     28 N4         -3.7570    0.8100   -1.5210 N.pl3     1 LIG        -0.9000
     29 H12        -4.5410    0.2440   -1.8870 H         1 LIG         0.4000
     30 H13        -3.7290    1.7990   -1.8320 H         1 LIG         0.4000
     31 C13        -1.7280    1.0780   -0.2110 C.ar      1 LIG        -0.1440
     32 C14        -1.3200    2.5210   -0.4140 C.3       1 LIG         0.0450
     33 H14        -2.0350    3.2010    0.0280 H         1 LIG         0.0800
     34 H15        -1.0570    2.7170   -1.4440 H         1 LIG         0.0800
@<TRIPOS>BOND
  1   1   2  2   
  2   2   3  am  
  3   2  32  1   
  4   3   4  1   
  5   3  18  1   
  6   4   5  1   
  7   4   6  1   
  8   4   7  1   
  9   7   8  ar  
 10   7  16  ar  
 11   8   9  1   
 12   8  10  ar  
 13  10  11  1   
 14  10  12  ar  
 15  12  13  1   
 16  12  14  ar  
 17  14  15  1   
 18  14  16  ar  
 19  16  17  1   
 20  18  19  ar  
 21  18  31  ar  
 22  19  20  ar  
 23  20  21  1   
 24  20  25  ar  
 25  21  22  1   
 26  21  23  1   
 27  21  24  1   
 28  25  26  1   
 29  25  27  ar  
 30  27  28  1   
 31  27  31  ar  
 32  28  29  1   
 33  28  30  1   
 34  31  32  1   
 35  32  33  1   
 36  32  34  1   
@<TRIPOS>SUBSTRUCTURE
  1 ****  18 GROUP 4 **** **** 0

# MOE 2018.01 (io_trps.svl 2018.01)

@<TRIPOS>MOLECULE
CHEMBL3221824
36 38 1 0 0 
SMALL
USER_CHARGES


@<TRIPOS>ATOM
      1 O1          1.0350   -3.3580    1.1830 O.2       1 LIG        -0.5700
      2 C1          0.2160   -2.5800    0.7320 C.2       1 LIG         0.6900
      3 N1          0.2280   -1.2280    1.0280 N.am      1 LIG        -0.4770
      4 C2          1.3910   -0.6730    1.7480 C.3       1 LIG         0.2840
      5 H1          1.0760    0.0720    2.4660 H         1 LIG         0.0800
      6 H2          1.9700   -1.4530    2.2270 H         1 LIG         0.0800
      7 C3          2.2430   -0.0250    0.6700 C.ar      1 LIG        -0.1440
      8 C4          3.0100   -0.8160   -0.1860 C.ar      1 LIG        -0.1500
      9 H3          3.0100   -1.8720   -0.0780 H         1 LIG         0.1500
     10 C5          3.7810   -0.2280   -1.1850 C.ar      1 LIG        -0.1500
     11 H4          4.3630   -0.8350   -1.8310 H         1 LIG         0.1500
     12 C6          3.7920    1.1550   -1.3330 C.ar      1 LIG        -0.1500
     13 H5          4.3820    1.6020   -2.0920 H         1 LIG         0.1500
     14 C7          3.0330    1.9500   -0.4800 C.ar      1 LIG        -0.1500
     15 H6          3.0470    3.0040   -0.5890 H         1 LIG         0.1500
     16 C8          2.2620    1.3620    0.5180 C.ar      1 LIG        -0.1500
     17 H7          1.6890    1.9750    1.1650 H         1 LIG         0.1500
     18 C9         -0.8000   -0.4290    0.5900 C.ar      1 LIG         0.4270
     19 N2         -0.9480    0.8030    1.1640 N.ar      1 LIG        -0.6200
     20 C10        -1.9030    1.5890    0.7850 C.ar      1 LIG         0.5280
     21 C11        -2.1160    2.9600    1.3790 C.3       1 LIG        -0.0970
     22 H8         -1.3460    3.1280    2.1330 H         1 LIG         0.0800
     23 H9         -3.1030    2.9940    1.8410 H         1 LIG         0.0800
     24 H10        -2.0300    3.7040    0.5870 H         1 LIG         0.0800
     25 N3         -2.7750    1.2030   -0.1860 N.ar      1 LIG        -0.1790
     26 H11        -3.5270    1.8390   -0.4740 H         1 LIG         0.4570
     27 C12        -2.6730    0.0060   -0.7830 C.ar      1 LIG         0.4610
     28 N4         -3.5990   -0.2280   -1.7330 N.pl3     1 LIG        -0.9000
     29 H12        -4.3400    0.4420   -1.9990 H         1 LIG         0.4000
     30 H13        -3.6040   -1.1260   -2.2500 H         1 LIG         0.4000
     31 C13        -1.6570   -0.8690   -0.3960 C.ar      1 LIG        -0.1440
     32 C14        -1.4490   -2.2140   -1.0540 C.3       1 LIG         0.2840
     33 H14        -0.8230   -2.0880   -1.9290 H         1 LIG         0.0800
     34 H15        -2.4080   -2.6650   -1.2760 H         1 LIG         0.0800
     35 N5         -0.7570   -3.0450   -0.0830 N.am      1 LIG        -0.7300
     36 H16        -0.6710   -4.0520   -0.2810 H         1 LIG         0.3700
@<TRIPOS>BOND
  1   1   2  2   
  2   2   3  am  
  3   2  35  am  
  4   3   4  1   
  5   3  18  1   
  6   4   5  1   
  7   4   6  1   
  8   4   7  1   
  9   7   8  ar  
 10   7  16  ar  
 11   8   9  1   
 12   8  10  ar  
 13  10  11  1   
 14  10  12  ar  
 15  12  13  1   
 16  12  14  ar  
 17  14  15  1   
 18  14  16  ar  
 19  16  17  1   
 20  18  19  ar  
 21  18  31  ar  
 22  19  20  ar  
 23  20  21  1   
 24  20  25  ar  
 25  21  22  1   
 26  21  23  1   
 27  21  24  1   
 28  25  26  1   
 29  25  27  ar  
 30  27  28  1   
 31  27  31  ar  
 32  28  29  1   
 33  28  30  1   
 34  31  32  1   
 35  32  33  1   
 36  32  34  1   
 37  32  35  1   
 38  35  36  1   
@<TRIPOS>SUBSTRUCTURE
  1 ****  18 GROUP 4 **** **** 0

# MOE 2018.01 (io_trps.svl 2018.01)

@<TRIPOS>MOLECULE
CHEMBL3221825
42 44 1 0 0 
SMALL
USER_CHARGES


@<TRIPOS>ATOM
      1 O1          4.3210    0.3540    0.3740 O.3       1 LIG        -0.5600
      2 C1          4.1760    1.6800   -0.1420 C.3       1 LIG         0.1200
      3 H1          4.9390    2.3240    0.3010 H         1 LIG         0.0800
      4 H2          4.3040    1.6890   -1.2270 H         1 LIG         0.0800
      5 C2          2.7960    2.2650    0.2130 C.3       1 LIG         0.2090
      6 H3          2.8240    3.3440    0.0450 H         1 LIG         0.0800
      7 H4          2.5770    2.0900    1.2690 H         1 LIG         0.0800
      8 N1          1.7650    1.6580   -0.6670 N.pl3     1 LIG        -0.8690
      9 H5          1.2590    2.3170   -1.2840 H         1 LIG         0.4000
     10 C3          1.1210    0.4900   -0.4870 C.ar      1 LIG         0.7710
     11 N2          1.7780   -0.4660    0.2360 N.ar      1 LIG        -0.1790
     12 H6          2.7480   -0.2570    0.5210 H         1 LIG         0.4570
     13 C4          1.2150   -1.6620    0.4860 C.ar      1 LIG         0.4610
     14 N3          1.9500   -2.5250    1.2090 N.pl3     1 LIG        -0.9000
     15 H7          2.8910   -2.3120    1.5810 H         1 LIG         0.4000
     16 H8          1.5540   -3.4650    1.4310 H         1 LIG         0.4000
     17 C5         -0.0560   -1.8920   -0.0260 C.ar      1 LIG         0.0860
     18 C6         -0.9300   -2.9980    0.0470 C.2       1 LIG         0.5440
     19 O2         -0.7950   -4.1000    0.5940 O.2       1 LIG        -0.5700
     20 N4         -2.0450   -2.6400   -0.6370 N.am      1 LIG        -0.4100
     21 H9         -2.8930   -3.2270   -0.7430 H         1 LIG         0.3700
     22 N5         -1.8650   -1.2820   -1.1490 N.pl3     1 LIG        -0.4890
     23 C7         -2.9060   -0.4760   -1.8010 C.3       1 LIG         0.3530
     24 H10        -2.4510    0.2340   -2.4780 H         1 LIG         0.0800
     25 H11        -3.6190   -1.1250   -2.2940 H         1 LIG         0.0800
     26 C8         -3.5920    0.2660   -0.6690 C.ar      1 LIG        -0.1440
     27 C9         -4.5870   -0.3570    0.0880 C.ar      1 LIG        -0.1500
     28 H12        -4.8750   -1.3530   -0.1280 H         1 LIG         0.1500
     29 C10        -5.2050    0.3240    1.1320 C.ar      1 LIG        -0.1500
     30 H13        -5.9600   -0.1540    1.7040 H         1 LIG         0.1500
     31 C11        -4.8350    1.6310    1.4280 C.ar      1 LIG        -0.1500
     32 H14        -5.3080    2.1490    2.2230 H         1 LIG         0.1500
     33 C12        -3.8450    2.2580    0.6790 C.ar      1 LIG        -0.1500
     34 H15        -3.5640    3.2550    0.9040 H         1 LIG         0.1500
     35 C13        -3.2250    1.5770   -0.3640 C.ar      1 LIG        -0.1500
     36 H16        -2.4680    2.0620   -0.9270 H         1 LIG         0.1500
     37 C14        -0.6480   -0.8790   -0.7570 C.ar      1 LIG         0.4100
     38 N6         -0.0710    0.3180   -1.0080 N.ar      1 LIG        -0.6200
     39 C15         5.6230   -0.1710    0.1270 C.3       1 LIG         0.0400
     40 H17         5.6970   -1.1810    0.5320 H         1 LIG         0.0800
     41 H18         6.3820    0.4480    0.6110 H         1 LIG         0.0800
     42 H19         5.8240   -0.2110   -0.9460 H         1 LIG         0.0800
@<TRIPOS>BOND
  1   1   2  1   
  2   1  39  1   
  3   2   3  1   
  4   2   4  1   
  5   2   5  1   
  6   5   6  1   
  7   5   7  1   
  8   5   8  1   
  9   8   9  1   
 10   8  10  1   
 11  10  11  ar  
 12  10  38  ar  
 13  11  12  1   
 14  11  13  ar  
 15  13  14  1   
 16  13  17  ar  
 17  14  15  1   
 18  14  16  1   
 19  17  18  1   
 20  17  37  ar  
 21  18  19  2   
 22  18  20  am  
 23  20  21  1   
 24  20  22  1   
 25  22  23  1   
 26  22  37  1   
 27  23  24  1   
 28  23  25  1   
 29  23  26  1   
 30  26  27  ar  
 31  26  35  ar  
 32  27  28  1   
 33  27  29  ar  
 34  29  30  1   
 35  29  31  ar  
 36  31  32  1   
 37  31  33  ar  
 38  33  34  1   
 39  33  35  ar  
 40  35  36  1   
 41  37  38  ar  
 42  39  40  1   
 43  39  41  1   
 44  39  42  1   
@<TRIPOS>SUBSTRUCTURE
  1 ****  37 GROUP 4 **** **** 0

# MOE 2018.01 (io_trps.svl 2018.01)

@<TRIPOS>MOLECULE
CHEMBL3221830
31 33 1 0 0 
SMALL
USER_CHARGES


@<TRIPOS>ATOM
      1 F1          3.3440   -1.5800   -1.4320 F         1 LIG        -0.3400
      2 C1          3.5120   -1.0920   -0.1820 C.3       1 LIG         1.1640
      3 F2          3.1190   -2.0360    0.6970 F         1 LIG        -0.3400
      4 F3          4.8260   -0.8410    0.0060 F         1 LIG        -0.3400
      5 C2          2.6420    0.1810   -0.0010 C.ar      1 LIG         0.1660
      6 N1          3.1680    1.3300    0.5490 N.ar      1 LIG        -0.6200
      7 C3          2.4180    2.4250    0.7170 C.ar      1 LIG         0.1600
      8 H1          2.8520    3.2930    1.1430 H         1 LIG         0.1500
      9 C4          1.0810    2.4090    0.3320 C.ar      1 LIG         0.1170
     10 N2          0.0810    3.3720    0.3850 N.am      1 LIG        -0.5470
     11 H2          0.1300    4.3370    0.7320 H         1 LIG         0.3700
     12 C5         -1.0710    2.8580   -0.1210 C.2       1 LIG         0.6900
     13 O1         -2.1320    3.4630   -0.2230 O.2       1 LIG        -0.5700
     14 N3         -0.8140    1.5600   -0.4930 N.am      1 LIG        -0.4770
     15 C6         -1.8350    0.7170   -1.1210 C.3       1 LIG         0.2840
     16 H3         -2.8150    1.1550   -0.9810 H         1 LIG         0.0800
     17 H4         -1.5890    0.5900   -2.1670 H         1 LIG         0.0800
     18 C7         -1.8100   -0.6310   -0.4180 C.ar      1 LIG        -0.1440
     19 C8         -1.9920   -0.7170    0.9630 C.ar      1 LIG        -0.1500
     20 H5         -2.1510    0.1640    1.5330 H         1 LIG         0.1500
     21 C9         -1.9640   -1.9530    1.6010 C.ar      1 LIG        -0.1500
     22 H6         -2.0990   -2.0100    2.6510 H         1 LIG         0.1500
     23 C10        -1.7580   -3.1130    0.8620 C.ar      1 LIG        -0.1500
     24 H7         -1.7360   -4.0550    1.3490 H         1 LIG         0.1500
     25 C11        -1.5840   -3.0370   -0.5150 C.ar      1 LIG        -0.1500
     26 H8         -1.4310   -3.9220   -1.0790 H         1 LIG         0.1500
     27 C12        -1.6130   -1.8000   -1.1540 C.ar      1 LIG        -0.1500
     28 H9         -1.4820   -1.7550   -2.2050 H         1 LIG         0.1500
     29 C13         0.5240    1.2800   -0.2190 C.ar      1 LIG         0.1170
     30 C14         1.3000    0.1420   -0.3950 C.ar      1 LIG        -0.1500
     31 H10         0.8780   -0.7350   -0.8110 H         1 LIG         0.1500
@<TRIPOS>BOND
  1   1   2  1   
  2   2   3  1   
  3   2   4  1   
  4   2   5  1   
  5   5   6  ar  
  6   5  30  ar  
  7   6   7  ar  
  8   7   8  1   
  9   7   9  ar  
 10   9  10  1   
 11   9  29  ar  
 12  10  11  1   
 13  10  12  am  
 14  12  13  2   
 15  12  14  am  
 16  14  15  1   
 17  14  29  1   
 18  15  16  1   
 19  15  17  1   
 20  15  18  1   
 21  18  19  ar  
 22  18  27  ar  
 23  19  20  1   
 24  19  21  ar  
 25  21  22  1   
 26  21  23  ar  
 27  23  24  1   
 28  23  25  ar  
 29  25  26  1   
 30  25  27  ar  
 31  27  28  1   
 32  29  30  ar  
 33  30  31  1   
@<TRIPOS>SUBSTRUCTURE
  1 ****  30 GROUP 4 **** **** 0

# MOE 2018.01 (io_trps.svl 2018.01)

@<TRIPOS>MOLECULE
CHEMBL3221822
32 34 1 0 0 
SMALL
USER_CHARGES


@<TRIPOS>ATOM
      1 O1          0.7960   -3.6450    0.6670 O.2       1 LIG        -0.5700
      2 C1         -0.0260   -2.7610    0.4170 C.2       1 LIG         0.7710
      3 N1          0.0820   -1.4820    0.9330 N.am      1 LIG        -0.4770
      4 C2          1.2690   -1.0390    1.6690 C.3       1 LIG         0.2840
      5 H1          0.9900   -0.3130    2.4210 H         1 LIG         0.0800
      6 H2          1.7970   -1.8840    2.0940 H         1 LIG         0.0800
      7 C3          2.1470   -0.3780    0.6220 C.ar      1 LIG        -0.1440
      8 C4          2.9140   -1.1560   -0.2470 C.ar      1 LIG        -0.1500
      9 H3          2.9010   -2.2150   -0.1690 H         1 LIG         0.1500
     10 C5          3.7050   -0.5520   -1.2200 C.ar      1 LIG        -0.1500
     11 H4          4.2850   -1.1500   -1.8760 H         1 LIG         0.1500
     12 C6          3.7370    0.8340   -1.3290 C.ar      1 LIG        -0.1500
     13 H5          4.3410    1.2930   -2.0700 H         1 LIG         0.1500
     14 C7          2.9800    1.6160   -0.4640 C.ar      1 LIG        -0.1500
     15 H6          3.0120    2.6730   -0.5430 H         1 LIG         0.1500
     16 C8          2.1880    1.0120    0.5090 C.ar      1 LIG        -0.1500
     17 H7          1.6170    1.6170    1.1650 H         1 LIG         0.1500
     18 C9         -0.9380   -0.6650    0.5470 C.ar      1 LIG         0.4270
     19 N2         -1.0730    0.6360    0.9410 N.ar      1 LIG        -0.6200
     20 C10        -2.0750    1.3280    0.4850 C.ar      1 LIG         0.5280
     21 C11        -2.3010    2.7740    0.8570 C.3       1 LIG        -0.0970
     22 H8         -1.4860    3.0890    1.5120 H         1 LIG         0.0800
     23 H9         -3.2530    2.8590    1.3810 H         1 LIG         0.0800
     24 H10        -2.3000    3.3770   -0.0510 H         1 LIG         0.0800
     25 N3         -2.9980    0.7690   -0.3730 N.ar      1 LIG        -0.1790
     26 H11        -3.7800    1.3380   -0.7220 H         1 LIG         0.4570
     27 C12        -2.9090   -0.5120   -0.7700 C.ar      1 LIG         0.4610
     28 N4         -3.8690   -0.9490   -1.6050 N.pl3     1 LIG        -0.9000
     29 H12        -4.6520   -0.3750   -1.9620 H         1 LIG         0.4000
     30 H13        -3.8360   -1.9330   -1.9400 H         1 LIG         0.4000
     31 C13        -1.8340   -1.2730   -0.2870 C.ar      1 LIG         0.1020
     32 S1         -1.4330   -2.9320   -0.5900 S.3       1 LIG        -0.2430
@<TRIPOS>BOND
  1   1   2  2   
  2   2   3  am  
  3   2  32  1   
  4   3   4  1   
  5   3  18  1   
  6   4   5  1   
  7   4   6  1   
  8   4   7  1   
  9   7   8  ar  
 10   7  16  ar  
 11   8   9  1   
 12   8  10  ar  
 13  10  11  1   
 14  10  12  ar  
 15  12  13  1   
 16  12  14  ar  
 17  14  15  1   
 18  14  16  ar  
 19  16  17  1   
 20  18  19  ar  
 21  18  31  ar  
 22  19  20  ar  
 23  20  21  1   
 24  20  25  ar  
 25  21  22  1   
 26  21  23  1   
 27  21  24  1   
 28  25  26  1   
 29  25  27  ar  
 30  27  28  1   
 31  27  31  ar  
 32  28  29  1   
 33  28  30  1   
 34  31  32  1   
@<TRIPOS>SUBSTRUCTURE
  1 ****  18 GROUP 4 **** **** 0

# MOE 2018.01 (io_trps.svl 2018.01)

@<TRIPOS>MOLECULE
CHEMBL3221823
38 41 1 0 0 
SMALL
USER_CHARGES


@<TRIPOS>ATOM
      1 O1         -3.2100   -3.3780   -0.2360 O.3       1 LIG        -0.5120
      2 H1         -4.1680   -3.2160   -0.3040 H         1 LIG         0.4500
      3 C1         -2.6580   -2.1660   -0.1070 C.2       1 LIG         0.3510
      4 C2         -1.2940   -1.9020    0.0240 C.2       1 LIG        -0.1810
      5 C3         -0.1880   -2.9490    0.0500 C.3       1 LIG         0.1640
      6 H2         -0.2840   -3.5380    0.9520 H         1 LIG         0.0800
      7 H3         -0.2590   -3.5570   -0.8420 H         1 LIG         0.0800
      8 C4          1.1440   -2.2170    0.0550 C.ar      1 LIG        -0.1440
      9 C5          1.7730   -1.9050    1.2610 C.ar      1 LIG        -0.1500
     10 H4          1.3420   -2.2090    2.1820 H         1 LIG         0.1500
     11 C6          2.9630   -1.1840    1.2670 C.ar      1 LIG        -0.1500
     12 H5          3.4370   -0.9490    2.1860 H         1 LIG         0.1500
     13 C7          3.5350   -0.7750    0.0670 C.ar      1 LIG        -0.1500
     14 H6          4.4430   -0.2280    0.0710 H         1 LIG         0.1500
     15 C8          2.9180   -1.0900   -1.1390 C.ar      1 LIG        -0.1500
     16 H7          3.3560   -0.7840   -2.0550 H         1 LIG         0.1500
     17 C9          1.7260   -1.8090   -1.1450 C.ar      1 LIG        -0.1500
     18 H8          1.2590   -2.0390   -2.0680 H         1 LIG         0.1500
     19 C10        -1.2370   -0.5520    0.1240 C.2       1 LIG        -0.0680
     20 N1         -0.1990    0.3820    0.2740 N.pl3     1 LIG        -0.5840
     21 H9          0.7910    0.0320    0.3140 H         1 LIG         0.4000
     22 C11        -0.4300    1.7070    0.3470 C.2       1 LIG         0.0600
     23 C12         0.8080    2.5610    0.5180 C.3       1 LIG        -0.0600
     24 H10         1.1500    2.7020    1.5350 H         1 LIG         0.1000
     25 C13         0.9790    3.6750   -0.4730 C.3       1 LIG        -0.2000
     26 H11         0.2260    3.7900   -1.2410 H         1 LIG         0.1000
     27 H12         1.4700    4.5700   -0.1140 H         1 LIG         0.1000
     28 C14         1.8350    2.4350   -0.5700 C.3       1 LIG        -0.2000
     29 H13         2.8690    2.5340   -0.2680 H         1 LIG         0.1000
     30 H14         1.6150    1.7590   -1.3860 H         1 LIG         0.1000
     31 C15        -1.7320    2.1730    0.2780 C.2       1 LIG        -0.1360
     32 H15        -1.9250    3.2120    0.3410 H         1 LIG         0.1500
     33 C16        -2.7960    1.2610    0.1230 C.cat     1 LIG         0.3950
     34 N2         -4.0940    1.5590    0.0340 N.pl3     1 LIG        -0.2000
     35 H16        -4.7700    0.7770   -0.0790 H         1 LIG         0.4000
     36 H17        -4.4360    2.5310    0.0750 H         1 LIG         0.4000
     37 N3         -2.5210   -0.0900    0.0490 N.pl3     1 LIG         0.5610
     38 N4         -3.4390   -1.1200   -0.0990 N.2       1 LIG        -0.7070
@<TRIPOS>BOND
  1   1   2  1   
  2   1   3  1   
  3   3   4  1   
  4   3  38  2   
  5   4   5  1   
  6   4  19  2   
  7   5   6  1   
  8   5   7  1   
  9   5   8  1   
 10   8   9  ar  
 11   8  17  ar  
 12   9  10  1   
 13   9  11  ar  
 14  11  12  1   
 15  11  13  ar  
 16  13  14  1   
 17  13  15  ar  
 18  15  16  1   
 19  15  17  ar  
 20  17  18  1   
 21  19  20  1   
 22  19  37  1   
 23  20  21  1   
 24  20  22  1   
 25  22  23  1   
 26  22  31  2   
 27  23  24  1   
 28  23  25  1   
 29  23  28  1   
 30  25  26  1   
 31  25  27  1   
 32  25  28  1   
 33  28  29  1   
 34  28  30  1   
 35  31  32  1   
 36  31  33  1   
 37  33  34  ar  
 38  33  37  ar  
 39  34  35  1   
 40  34  36  1   
 41  37  38  1   
@<TRIPOS>SUBSTRUCTURE
  1 ****  20 GROUP 4 **** **** 0

# MOE 2018.01 (io_trps.svl 2018.01)

@<TRIPOS>MOLECULE
CHEMBL4456944
37 39 1 0 0 
SMALL
USER_CHARGES


@<TRIPOS>ATOM
      1 F1         -4.0600   -2.5900   -1.2370 F         1 LIG        -0.3400
      2 C1         -4.0860   -1.9320   -0.0490 C.3       1 LIG         1.1640
      3 F2         -5.3510   -1.4660    0.1430 F         1 LIG        -0.3400
      4 F3         -3.8220   -2.8270    0.9390 F         1 LIG        -0.3400
      5 C2         -3.0270   -0.7710   -0.0420 C.ar      1 LIG         0.4760
      6 N1         -1.6950   -1.1020   -0.1000 N.ar      1 LIG        -0.6200
      7 C3         -0.7840   -0.1650   -0.1030 C.ar      1 LIG         0.4100
      8 N2          0.5280   -0.5670   -0.2250 N.pl3     1 LIG        -0.8380
      9 C4          0.9170   -1.8610    0.3830 C.3       1 LIG         0.2090
     10 H1          0.3790   -2.0090    1.3120 H         1 LIG         0.0800
     11 H2          0.7300   -2.6590   -0.3230 H         1 LIG         0.0800
     12 C5          2.4340   -1.8010    0.6960 C.3       1 LIG        -0.0800
     13 C6          2.6880   -0.8300    1.8670 C.3       1 LIG        -0.2400
     14 H3          3.7580   -0.7590    2.0640 H         1 LIG         0.0800
     15 H4          2.1890   -1.1980    2.7640 H         1 LIG         0.0800
     16 H5          2.3010    0.1640    1.6410 H         1 LIG         0.0800
     17 C7          3.2000   -1.4170   -0.5860 C.3       1 LIG        -0.1600
     18 H6          4.2600   -1.3070   -0.3520 H         1 LIG         0.0800
     19 H7          3.0990   -2.2240   -1.3140 H         1 LIG         0.0800
     20 C8          2.6810   -0.1080   -1.2100 C.3       1 LIG        -0.1600
     21 H8          3.2150    0.0920   -2.1390 H         1 LIG         0.0800
     22 H9          2.8320    0.7290   -0.5300 H         1 LIG         0.0800
     23 C9          1.1800   -0.2800   -1.5130 C.3       1 LIG         0.2090
     24 H10         1.0380   -1.1140   -2.1880 H         1 LIG         0.0800
     25 H11         0.8060    0.6460   -1.9300 H         1 LIG         0.0800
     26 C10        -1.1290    1.2140   -0.0100 C.ar      1 LIG         0.0000
     27 C11        -2.4980    1.5030    0.0200 C.ar      1 LIG         0.3100
     28 N3         -3.4160    0.4870    0.0050 N.ar      1 LIG        -0.6200
     29 C12        -2.9280    2.8440    0.0810 C.ar      1 LIG        -0.1500
     30 H12        -3.9660    3.0480    0.0860 H         1 LIG         0.1500
     31 C13        -2.0070    3.8700    0.1380 C.ar      1 LIG        -0.1500
     32 H13        -2.3330    4.8790    0.1860 H         1 LIG         0.1500
     33 C14        -0.6300    3.5840    0.1420 C.ar      1 LIG        -0.1500
     34 H14         0.0710    4.3780    0.2010 H         1 LIG         0.1500
     35 C15        -0.1950    2.2770    0.0750 C.ar      1 LIG        -0.1500
     36 H15         0.8420    2.0580    0.0950 H         1 LIG         0.1500
     37 H16         2.7800   -2.7860    1.0110 H         1 LIG         0.0800
@<TRIPOS>BOND
  1   1   2  1   
  2   2   3  1   
  3   2   4  1   
  4   2   5  1   
  5   5   6  ar  
  6   5  28  ar  
  7   6   7  ar  
  8   7   8  1   
  9   7  26  ar  
 10   8   9  1   
 11   8  23  1   
 12   9  10  1   
 13   9  11  1   
 14   9  12  1   
 15  12  13  1   
 16  12  17  1   
 17  12  37  1   
 18  13  14  1   
 19  13  15  1   
 20  13  16  1   
 21  17  18  1   
 22  17  19  1   
 23  17  20  1   
 24  20  21  1   
 25  20  22  1   
 26  20  23  1   
 27  23  24  1   
 28  23  25  1   
 29  26  27  ar  
 30  26  35  ar  
 31  27  28  ar  
 32  27  29  ar  
 33  29  30  1   
 34  29  31  ar  
 35  31  32  1   
 36  31  33  ar  
 37  33  34  1   
 38  33  35  ar  
 39  35  36  1   
@<TRIPOS>SUBSTRUCTURE
  1 ****   7 GROUP 4 **** **** 0

# MOE 2018.01 (io_trps.svl 2018.01)

@<TRIPOS>MOLECULE
CHEMBL4448786
33 34 1 0 0 
SMALL
USER_CHARGES


@<TRIPOS>ATOM
      1 F1          4.7860   -1.6270   -0.2030 F         1 LIG        -0.3400
      2 C1          3.5170   -1.9960    0.1220 C.3       1 LIG         1.1640
      3 F2          3.5630   -2.6220    1.3260 F         1 LIG        -0.3400
      4 F3          3.0920   -2.8900   -0.8080 F         1 LIG        -0.3400
      5 C2          2.5450   -0.7620    0.1790 C.ar      1 LIG         0.4760
      6 N1          1.2350   -0.9760    0.5370 N.ar      1 LIG        -0.6200
      7 C3          0.4050    0.0220    0.5840 C.ar      1 LIG         0.4100
      8 N2         -0.8670   -0.3560    0.8770 N.pl3     1 LIG        -0.8690
      9 H1         -0.9250   -1.3490    1.1430 H         1 LIG         0.4000
     10 C4         -1.9940    0.0620    0.0420 C.3       1 LIG         0.2090
     11 H2         -2.6860    0.6720    0.6270 H         1 LIG         0.0800
     12 H3         -1.6520    0.6330   -0.8250 H         1 LIG         0.0800
     13 C5         -2.7130   -1.2170   -0.4400 C.3       1 LIG        -0.0800
     14 H4         -3.5500   -0.8870   -1.0590 H         1 LIG         0.0800
     15 C6         -3.3000   -2.0470    0.7160 C.3       1 LIG        -0.2400
     16 H5         -2.5070   -2.4660    1.3360 H         1 LIG         0.0800
     17 H6         -3.8980   -2.8660    0.3150 H         1 LIG         0.0800
     18 H7         -3.9400   -1.4170    1.3360 H         1 LIG         0.0800
     19 C7         -1.8190   -2.1090   -1.3190 C.3       1 LIG        -0.2400
     20 H8         -0.9930   -2.5220   -0.7380 H         1 LIG         0.0800
     21 H9         -1.4080   -1.5240   -2.1430 H         1 LIG         0.0800
     22 H10        -2.4050   -2.9310   -1.7300 H         1 LIG         0.0800
     23 C8          0.8100    1.3650    0.3340 C.ar      1 LIG         0.0000
     24 C9          2.1440    1.5290   -0.0620 C.ar      1 LIG         0.3100
     25 N3          2.9800    0.4450   -0.1240 N.ar      1 LIG        -0.6200
     26 C10         2.6280    2.8140   -0.3750 C.ar      1 LIG        -0.1500
     27 H11         3.6320    2.9180   -0.6950 H         1 LIG         0.1500
     28 C11         1.8080    3.9170   -0.2580 C.ar      1 LIG        -0.1500
     29 H12         2.1750    4.8840   -0.4920 H         1 LIG         0.1500
     30 C12         0.4810    3.7650    0.1840 C.ar      1 LIG        -0.1500
     31 H13        -0.1360    4.6210    0.2900 H         1 LIG         0.1500
     32 C13        -0.0100    2.5120    0.4840 C.ar      1 LIG        -0.1500
     33 H14        -1.0010    2.4050    0.8400 H         1 LIG         0.1500
@<TRIPOS>BOND
  1   1   2  1   
  2   2   3  1   
  3   2   4  1   
  4   2   5  1   
  5   5   6  ar  
  6   5  25  ar  
  7   6   7  ar  
  8   7   8  1   
  9   7  23  ar  
 10   8   9  1   
 11   8  10  1   
 12  10  11  1   
 13  10  12  1   
 14  10  13  1   
 15  13  14  1   
 16  13  15  1   
 17  13  19  1   
 18  15  16  1   
 19  15  17  1   
 20  15  18  1   
 21  19  20  1   
 22  19  21  1   
 23  19  22  1   
 24  23  24  ar  
 25  23  32  ar  
 26  24  25  ar  
 27  24  26  ar  
 28  26  27  1   
 29  26  28  ar  
 30  28  29  1   
 31  28  30  ar  
 32  30  31  1   
 33  30  32  ar  
 34  32  33  1   
@<TRIPOS>SUBSTRUCTURE
  1 ****   7 GROUP 4 **** **** 0

# MOE 2018.01 (io_trps.svl 2018.01)

@<TRIPOS>MOLECULE
CHEMBL4644708
46 48 1 0 0 
SMALL
USER_CHARGES


@<TRIPOS>ATOM
      1 O1         -3.7530    1.3660   -0.1870 O.3       1 LIG        -0.5600
      2 C1         -3.6650    0.8780    1.1730 C.3       1 LIG         0.1200
      3 H1         -2.6650    0.5130    1.4120 H         1 LIG         0.0800
      4 H2         -3.9300    1.6810    1.8630 H         1 LIG         0.0800
      5 C2         -4.7010   -0.2410    1.2680 C.3       1 LIG        -0.2400
      6 H3         -4.4550   -1.0490    0.5810 H         1 LIG         0.0800
      7 H4         -5.6850    0.1570    1.0150 H         1 LIG         0.0800
      8 H5         -4.7240   -0.6290    2.2860 H         1 LIG         0.0800
      9 C3         -2.9110    0.7470   -1.2120 C.3       1 LIG         0.3000
     10 H6         -3.1010   -0.3150   -1.2280 H         1 LIG         0.0800
     11 H7         -3.1350    1.2140   -2.1620 H         1 LIG         0.0800
     12 C4         -1.4500    1.0600   -0.8700 C.2       1 LIG         0.0060
     13 N1         -0.4310    0.1200   -0.8790 N.pl3     1 LIG         0.0480
     14 C5         -0.6440   -1.2980   -1.2360 C.3       1 LIG         0.0960
     15 H8         -1.3970   -1.3410   -2.0110 H         1 LIG         0.0800
     16 H9          0.2570   -1.7560   -1.6010 H         1 LIG         0.0800
     17 C6         -1.1840   -2.0490    0.0120 C.3       1 LIG        -0.0800
     18 H10        -2.0480   -1.5440    0.4460 H         1 LIG         0.0800
     19 C7         -0.1070   -2.1920    1.1010 C.3       1 LIG        -0.2400
     20 H11         0.7360   -2.7790    0.7380 H         1 LIG         0.0800
     21 H12        -0.5330   -2.7090    1.9630 H         1 LIG         0.0800
     22 H13         0.2360   -1.2140    1.4370 H         1 LIG         0.0800
     23 C8         -1.6250   -3.4480   -0.4390 C.3       1 LIG        -0.2400
     24 H14        -0.7840   -3.9990   -0.8660 H         1 LIG         0.0800
     25 H15        -2.4180   -3.3720   -1.1850 H         1 LIG         0.0800
     26 H16        -2.0120   -4.0080    0.4150 H         1 LIG         0.0800
     27 C9          0.7290    0.7660   -0.5500 C.ar      1 LIG        -0.1520
     28 C10         0.3410    2.0690   -0.3640 C.ar      1 LIG         0.2270
     29 C11         1.2960    3.0650   -0.0030 C.ar      1 LIG         0.4610
     30 N2          1.0000    4.3490    0.2030 N.pl3     1 LIG        -0.9000
     31 H17         1.6690    5.0900    0.4630 H         1 LIG         0.4000
     32 H18         0.0010    4.6270    0.0890 H         1 LIG         0.4000
     33 N3          2.5760    2.7310    0.1470 N.ar      1 LIG        -0.1790
     34 H19         3.2290    3.4790    0.4050 H         1 LIG         0.4570
     35 C12         3.0340    1.4070   -0.0370 C.ar      1 LIG         0.3610
     36 C13         2.1190    0.3800   -0.3880 C.ar      1 LIG         0.0000
     37 C14         2.6510   -0.9170   -0.5450 C.ar      1 LIG        -0.1500
     38 H20         2.0340   -1.7320   -0.7960 H         1 LIG         0.1500
     39 C15         4.0040   -1.1610   -0.3680 C.ar      1 LIG        -0.1500
     40 H21         4.3790   -2.1480   -0.4920 H         1 LIG         0.1500
     41 C16         4.8920   -0.1270   -0.0240 C.ar      1 LIG         0.0730
     42 C17         6.2960   -0.4050    0.1540 C.1       1 LIG         0.4840
     43 N4          7.4080   -0.6100    0.2990 N.1       1 LIG        -0.5570
     44 C18         4.4010    1.1610    0.1420 C.ar      1 LIG        -0.1500
     45 H22         5.0630    1.9480    0.4030 H         1 LIG         0.1500
     46 N5         -0.9910    2.2340   -0.5710 N.2       1 LIG        -0.5650
@<TRIPOS>BOND
  1   1   2  1   
  2   1   9  1   
  3   2   3  1   
  4   2   4  1   
  5   2   5  1   
  6   5   6  1   
  7   5   7  1   
  8   5   8  1   
  9   9  10  1   
 10   9  11  1   
 11   9  12  1   
 12  12  13  1   
 13  12  46  2   
 14  13  14  1   
 15  13  27  1   
 16  14  15  1   
 17  14  16  1   
 18  14  17  1   
 19  17  18  1   
 20  17  19  1   
 21  17  23  1   
 22  19  20  1   
 23  19  21  1   
 24  19  22  1   
 25  23  24  1   
 26  23  25  1   
 27  23  26  1   
 28  27  28  ar  
 29  27  36  ar  
 30  28  29  ar  
 31  28  46  1   
 32  29  30  1   
 33  29  33  ar  
 34  30  31  1   
 35  30  32  1   
 36  33  34  1   
 37  33  35  ar  
 38  35  36  ar  
 39  35  44  ar  
 40  36  37  ar  
 41  37  38  1   
 42  37  39  ar  
 43  39  40  1   
 44  39  41  ar  
 45  41  42  1   
 46  41  44  ar  
 47  42  43  3   
 48  44  45  1   
@<TRIPOS>SUBSTRUCTURE
  1 ****  27 GROUP 4 **** **** 0

# MOE 2018.01 (io_trps.svl 2018.01)

@<TRIPOS>MOLECULE
CHEMBL3485054
37 39 1 0 0 
SMALL
USER_CHARGES


@<TRIPOS>ATOM
      1 F1         -3.5950    3.1580   -1.2140 F         1 LIG        -0.3400
      2 C1         -3.6840    2.5150   -0.0200 C.3       1 LIG         1.1640
      3 F2         -5.0050    2.3460    0.2640 F         1 LIG        -0.3400
      4 F3         -3.1540    3.3210    0.9380 F         1 LIG        -0.3400
      5 C2         -2.9160    1.1450   -0.0740 C.ar      1 LIG         0.4760
      6 N1         -1.5590    1.1630   -0.2870 N.ar      1 LIG        -0.6200
      7 C3         -0.8890    0.0460   -0.3390 C.ar      1 LIG         0.4100
      8 N2          0.4630    0.1270   -0.5390 N.pl3     1 LIG        -0.8690
      9 H1          1.0160   -0.7270   -0.4120 H         1 LIG         0.4000
     10 C4          1.2310    1.3640   -0.4810 C.3       1 LIG         0.2890
     11 H2          0.6620    2.2260   -0.8400 H         1 LIG         0.0800
     12 C5          2.4610    1.1710   -1.3790 C.3       1 LIG        -0.1600
     13 H3          2.1300    0.8800   -2.3770 H         1 LIG         0.0800
     14 H4          2.9700    2.1320   -1.4640 H         1 LIG         0.0800
     15 C6          3.4660    0.1320   -0.8460 C.3       1 LIG        -0.1600
     16 H5          3.0240   -0.8650   -0.8920 H         1 LIG         0.0800
     17 H6          4.3560    0.1350   -1.4770 H         1 LIG         0.0800
     18 C7          3.8680    0.4450    0.6020 C.3       1 LIG        -0.1600
     19 H7          4.5310   -0.3400    0.9720 H         1 LIG         0.0800
     20 H8          4.4120    1.3920    0.6280 H         1 LIG         0.0800
     21 C8          2.6370    0.5440    1.5140 C.3       1 LIG        -0.1600
     22 H9          2.9530    0.8260    2.5200 H         1 LIG         0.0800
     23 H10         2.1470   -0.4290    1.5710 H         1 LIG         0.0800
     24 C9          1.6420    1.5920    0.9820 C.3       1 LIG        -0.1600
     25 H11         2.1020    2.5780    1.0550 H         1 LIG         0.0800
     26 H12         0.7480    1.5950    1.6070 H         1 LIG         0.0800
     27 C10        -1.5220   -1.2200   -0.1910 C.ar      1 LIG         0.0000
     28 C11        -2.9050   -1.1890    0.0320 C.ar      1 LIG         0.3100
     29 N3         -3.5660    0.0090    0.0820 N.ar      1 LIG        -0.6200
     30 C12        -3.6120   -2.3950    0.2010 C.ar      1 LIG        -0.1500
     31 H13        -4.6560   -2.3550    0.3730 H         1 LIG         0.1500
     32 C13        -2.9540   -3.6050    0.1420 C.ar      1 LIG        -0.1500
     33 H14        -3.4890   -4.5120    0.2690 H         1 LIG         0.1500
     34 C14        -1.5670   -3.6440   -0.0910 C.ar      1 LIG        -0.1500
     35 H15        -1.0710   -4.5800   -0.1390 H         1 LIG         0.1500
     36 C15        -0.8580   -2.4720   -0.2560 C.ar      1 LIG        -0.1500
     37 H16         0.1840   -2.5090   -0.4350 H         1 LIG         0.1500
@<TRIPOS>BOND
  1   1   2  1   
  2   2   3  1   
  3   2   4  1   
  4   2   5  1   
  5   5   6  ar  
  6   5  29  ar  
  7   6   7  ar  
  8   7   8  1   
  9   7  27  ar  
 10   8   9  1   
 11   8  10  1   
 12  10  11  1   
 13  10  12  1   
 14  10  24  1   
 15  12  13  1   
 16  12  14  1   
 17  12  15  1   
 18  15  16  1   
 19  15  17  1   
 20  15  18  1   
 21  18  19  1   
 22  18  20  1   
 23  18  21  1   
 24  21  22  1   
 25  21  23  1   
 26  21  24  1   
 27  24  25  1   
 28  24  26  1   
 29  27  28  ar  
 30  27  36  ar  
 31  28  29  ar  
 32  28  30  ar  
 33  30  31  1   
 34  30  32  ar  
 35  32  33  1   
 36  32  34  ar  
 37  34  35  1   
 38  34  36  ar  
 39  36  37  1   
@<TRIPOS>SUBSTRUCTURE
  1 ****   7 GROUP 4 **** **** 0

# MOE 2018.01 (io_trps.svl 2018.01)

@<TRIPOS>MOLECULE
CHEMBL3963922
65 67 1 0 0 
SMALL
USER_CHARGES


@<TRIPOS>ATOM
      1 O1          3.5690   -0.4090    2.8380 O.2       1 LIG        -0.5700
      2 C1          3.2040   -0.3920    1.6760 C.2       1 LIG         0.5440
      3 N1          4.1510   -0.2990    0.6750 N.am      1 LIG        -0.5470
      4 H1          3.7980   -0.0820   -0.2620 H         1 LIG         0.3700
      5 C2          5.5680   -0.3510    0.8170 C.ar      1 LIG         0.1170
      6 C3          6.3150    0.2560   -0.1880 C.ar      1 LIG        -0.1500
      7 H2          5.8480    0.7540   -0.9930 H         1 LIG         0.1500
      8 C4          7.6990    0.1810   -0.0810 C.ar      1 LIG         0.0820
      9 O2          8.5390    0.7490   -1.0210 O.3       1 LIG        -0.3630
     10 C5          8.1650    1.4460   -2.2340 C.3       1 LIG         0.1200
     11 H3          8.9980    2.0680   -2.5650 H         1 LIG         0.0800
     12 H4          7.2870    2.0720   -2.0750 H         1 LIG         0.0800
     13 C6          7.8910    0.3560   -3.2720 C.3       1 LIG        -0.2400
     14 H5          7.6290    0.8170   -4.2240 H         1 LIG         0.0800
     15 H6          8.7860   -0.2520   -3.4030 H         1 LIG         0.0800
     16 H7          7.0720   -0.2820   -2.9430 H         1 LIG         0.0800
     17 C7          8.2900   -0.4810    0.9980 C.ar      1 LIG         0.1600
     18 H8          9.3460   -0.5340    1.0700 H         1 LIG         0.1500
     19 N2          7.5540   -1.0600    1.9530 N.ar      1 LIG        -0.6200
     20 C8          6.2190   -1.0010    1.8810 C.ar      1 LIG         0.1600
     21 H9          5.6640   -1.4740    2.6500 H         1 LIG         0.1500
     22 C9          1.7920   -0.4400    1.2980 C.ar      1 LIG         0.0860
     23 C10         1.3600   -1.0830    0.1310 C.ar      1 LIG        -0.1500
     24 H10         2.0540   -1.5620   -0.5100 H         1 LIG         0.1500
     25 C11         0.0030   -1.1110   -0.1650 C.ar      1 LIG         0.3490
     26 N3         -0.4170   -1.7700   -1.3240 N.pl3     1 LIG        -0.6530
     27 H11        -0.3970   -1.1910   -2.1820 H         1 LIG         0.4500
     28 C12        -1.4150   -2.5880   -1.1770 C.cat     1 LIG         0.6040
     29 N4         -1.1820   -3.6610   -0.4870 N.pl3     1 LIG        -0.7540
     30 H12        -0.2230   -3.8740   -0.1680 H         1 LIG         0.4500
     31 H13        -1.9470   -4.3180   -0.2490 H         1 LIG         0.4500
     32 C13        -2.7730   -2.1390   -1.6170 C.3       1 LIG         0.0830
     33 H14        -3.4370   -2.9930   -1.5880 H         1 LIG         0.0800
     34 H15        -2.7190   -1.6910   -2.5990 H         1 LIG         0.0800
     35 C14        -3.2110   -1.0760   -0.5920 C.2       1 LIG        -0.1240
     36 C15        -4.6430   -0.8000   -0.6750 C.2       1 LIG         0.6160
     37 O3         -5.4220   -1.6470   -1.0950 O.2       1 LIG        -0.5700
     38 N5         -5.1580    0.4310   -0.2950 N.am      1 LIG        -0.6600
     39 C16        -6.6050    0.5370    0.0410 C.3       1 LIG         0.1400
     40 H16        -7.1850   -0.2650   -0.4000 H         1 LIG         0.0800
     41 H17        -6.9830    1.4980   -0.2800 H         1 LIG         0.0800
     42 C17        -6.7310    0.4680    1.5810 C.3       1 LIG        -0.1600
     43 H18        -6.0390    1.1570    2.0640 H         1 LIG         0.0800
     44 H19        -7.7500    0.7480    1.8540 H         1 LIG         0.0800
     45 C18        -6.4700   -0.9700    2.0630 C.3       1 LIG        -0.2400
     46 H20        -7.1060   -1.6720    1.5200 H         1 LIG         0.0800
     47 H21        -6.6960   -1.0410    3.1270 H         1 LIG         0.0800
     48 H22        -5.4260   -1.2400    1.9140 H         1 LIG         0.0800
     49 C19        -4.5290    1.6540   -0.8460 C.3       1 LIG         0.1400
     50 H23        -5.1600    2.0660   -1.6240 H         1 LIG         0.0800
     51 H24        -3.5370    1.4390   -1.2180 H         1 LIG         0.0800
     52 C20        -4.4120    2.6760    0.3020 C.3       1 LIG        -0.1600
     53 H25        -3.9020    2.2420    1.1620 H         1 LIG         0.0800
     54 H26        -5.4000    3.0230    0.6070 H         1 LIG         0.0800
     55 C21        -3.6000    3.8630   -0.2350 C.3       1 LIG        -0.2400
     56 H27        -3.5130    4.6230    0.5430 H         1 LIG         0.0800
     57 H28        -4.1020    4.3050   -1.0970 H         1 LIG         0.0800
     58 H29        -2.5980    3.5410   -0.5220 H         1 LIG         0.0800
     59 C22        -2.4270   -0.4400    0.3490 C.2       1 LIG        -0.1780
     60 H30        -2.9350    0.2130    1.0140 H         1 LIG         0.1500
     61 C23        -0.9830   -0.4990    0.6420 C.ar      1 LIG         0.0280
     62 C24        -0.5240    0.1280    1.8100 C.ar      1 LIG        -0.1500
     63 H31        -1.2170    0.5950    2.4650 H         1 LIG         0.1500
     64 C25         0.8290    0.1520    2.1320 C.ar      1 LIG        -0.1500
     65 H32         1.1460    0.6290    3.0280 H         1 LIG         0.1500
@<TRIPOS>BOND
  1   1   2  2   
  2   2   3  am  
  3   2  22  1   
  4   3   4  1   
  5   3   5  1   
  6   5   6  ar  
  7   5  20  ar  
  8   6   7  1   
  9   6   8  ar  
 10   8   9  1   
 11   8  17  ar  
 12   9  10  1   
 13  10  11  1   
 14  10  12  1   
 15  10  13  1   
 16  13  14  1   
 17  13  15  1   
 18  13  16  1   
 19  17  18  1   
 20  17  19  ar  
 21  19  20  ar  
 22  20  21  1   
 23  22  23  ar  
 24  22  64  ar  
 25  23  24  1   
 26  23  25  ar  
 27  25  26  1   
 28  25  61  ar  
 29  26  27  1   
 30  26  28  ar  
 31  28  29  ar  
 32  28  32  1   
 33  29  30  1   
 34  29  31  1   
 35  32  33  1   
 36  32  34  1   
 37  32  35  1   
 38  35  36  1   
 39  35  59  2   
 40  36  37  2   
 41  36  38  am  
 42  38  39  1   
 43  38  49  1   
 44  39  40  1   
 45  39  41  1   
 46  39  42  1   
 47  42  43  1   
 48  42  44  1   
 49  42  45  1   
 50  45  46  1   
 51  45  47  1   
 52  45  48  1   
 53  49  50  1   
 54  49  51  1   
 55  49  52  1   
 56  52  53  1   
 57  52  54  1   
 58  52  55  1   
 59  55  56  1   
 60  55  57  1   
 61  55  58  1   
 62  59  60  1   
 63  59  61  1   
 64  61  62  ar  
 65  62  63  1   
 66  62  64  ar  
 67  64  65  1   
@<TRIPOS>SUBSTRUCTURE
  1 ****  23 GROUP 4 **** **** 0

# MOE 2018.01 (io_trps.svl 2018.01)

@<TRIPOS>MOLECULE
CHEMBL4590302
31 33 1 0 0 
SMALL
USER_CHARGES


@<TRIPOS>ATOM
      1 F1         -3.3450   -3.0760    1.2110 F         1 LIG        -0.3400
      2 C1         -3.3550   -2.4240    0.0200 C.3       1 LIG         1.1640
      3 F2         -4.6500   -2.1540   -0.2970 F         1 LIG        -0.3400
      4 F3         -2.8610   -3.2620   -0.9290 F         1 LIG        -0.3400
      5 C2         -2.4860   -1.1160    0.0990 C.ar      1 LIG         0.4760
      6 N1         -1.1590   -1.2280    0.4490 N.ar      1 LIG        -0.6200
      7 C3         -0.4180   -0.1650    0.5160 C.ar      1 LIG         0.4100
      8 N2          0.8830   -0.4280    0.7930 N.pl3     1 LIG        -0.8690
      9 H1          1.0100   -1.3870    1.1470 H         1 LIG         0.4000
     10 C4          1.8780   -0.1240   -0.2210 C.3       1 LIG         0.3040
     11 H2          1.5710   -0.5370   -1.1740 H         1 LIG         0.0800
     12 H3          2.0850    0.9360   -0.2630 H         1 LIG         0.0800
     13 C5          3.1270   -0.8560    0.2930 C.3       1 LIG        -0.1950
     14 H4          3.5220   -0.5010    1.2370 H         1 LIG         0.1000
     15 C6          4.0860   -1.3440   -0.7540 C.3       1 LIG        -0.2000
     16 H5          3.8340   -1.1610   -1.7910 H         1 LIG         0.1000
     17 H6          5.1350   -1.3390   -0.4860 H         1 LIG         0.1000
     18 C7          3.2060   -2.3250   -0.0110 C.3       1 LIG        -0.2000
     19 H7          3.6930   -2.9450    0.7310 H         1 LIG         0.1000
     20 H8          2.3880   -2.7630   -0.5690 H         1 LIG         0.1000
     21 C8         -0.9330    1.1440    0.2930 C.ar      1 LIG         0.0000
     22 C9         -2.2770    1.2050   -0.0960 C.ar      1 LIG         0.3100
     23 N3         -3.0200    0.0570   -0.1770 N.ar      1 LIG        -0.6200
     24 C10        -2.8640    2.4530   -0.3850 C.ar      1 LIG        -0.1500
     25 H9         -3.8740    2.4820   -0.7010 H         1 LIG         0.1500
     26 C11        -2.1340    3.6160   -0.2500 C.ar      1 LIG        -0.1500
     27 H10        -2.5780    4.5550   -0.4660 H         1 LIG         0.1500
     28 C12        -0.7970    3.5630    0.1870 C.ar      1 LIG        -0.1500
     29 H11        -0.2510    4.4640    0.3090 H         1 LIG         0.1500
     30 C13        -0.2060    2.3480    0.4640 C.ar      1 LIG        -0.1500
     31 H12         0.7910    2.3130    0.8200 H         1 LIG         0.1500
@<TRIPOS>BOND
  1   1   2  1   
  2   2   3  1   
  3   2   4  1   
  4   2   5  1   
  5   5   6  ar  
  6   5  23  ar  
  7   6   7  ar  
  8   7   8  1   
  9   7  21  ar  
 10   8   9  1   
 11   8  10  1   
 12  10  11  1   
 13  10  12  1   
 14  10  13  1   
 15  13  14  1   
 16  13  15  1   
 17  13  18  1   
 18  15  16  1   
 19  15  17  1   
 20  15  18  1   
 21  18  19  1   
 22  18  20  1   
 23  21  22  ar  
 24  21  30  ar  
 25  22  23  ar  
 26  22  24  ar  
 27  24  25  1   
 28  24  26  ar  
 29  26  27  1   
 30  26  28  ar  
 31  28  29  1   
 32  28  30  ar  
 33  30  31  1   
@<TRIPOS>SUBSTRUCTURE
  1 ****   7 GROUP 4 **** **** 0

# MOE 2018.01 (io_trps.svl 2018.01)

@<TRIPOS>MOLECULE
CHEMBL4455751
28 30 1 0 0 
SMALL
USER_CHARGES


@<TRIPOS>ATOM
      1 F1          4.1230    0.2510   -1.1520 F         1 LIG        -0.3400
      2 C1          3.6540    0.8850   -0.0460 C.3       1 LIG         1.1640
      3 F2          4.0810    0.2060    1.0490 F         1 LIG        -0.3400
      4 F3          4.2140    2.1260   -0.0120 F         1 LIG        -0.3400
      5 C2          2.0830    0.9540   -0.0710 C.ar      1 LIG         0.4760
      6 N1          1.3760   -0.2170   -0.1950 N.ar      1 LIG        -0.6200
      7 C3          0.0700   -0.2010   -0.2160 C.ar      1 LIG         0.4100
      8 N2         -0.5830   -1.4030   -0.3340 N.pl3     1 LIG        -0.6690
      9 H1         -1.6060   -1.4040   -0.2650 H         1 LIG         0.4000
     10 C4          0.0820   -2.6930   -0.3220 C.3       1 LIG         0.0690
     11 H2          1.0320   -2.7710   -0.8410 H         1 LIG         0.1000
     12 C5         -0.1210   -3.4720    0.9380 C.3       1 LIG        -0.2000
     13 H3          0.7010   -4.1050    1.2420 H         1 LIG         0.1000
     14 H4         -0.7010   -2.9940    1.7160 H         1 LIG         0.1000
     15 C6         -0.8500   -3.8630   -0.3250 C.3       1 LIG        -0.2000
     16 H5         -1.9100   -3.6520   -0.3600 H         1 LIG         0.1000
     17 H6         -0.4970   -4.7500   -0.8320 H         1 LIG         0.1000
     18 C7         -0.6660    1.0140   -0.1200 C.ar      1 LIG         0.0000
     19 C8          0.0960    2.1820    0.0100 C.ar      1 LIG         0.3100
     20 N3          1.4640    2.1120    0.0310 N.ar      1 LIG        -0.6200
     21 C9         -0.5480    3.4290    0.1200 C.ar      1 LIG        -0.1500
     22 H7          0.0430    4.3030    0.2200 H         1 LIG         0.1500
     23 C10        -1.9240    3.5090    0.0950 C.ar      1 LIG        -0.1500
     24 H8         -2.4070    4.4500    0.1770 H         1 LIG         0.1500
     25 C11        -2.6970    2.3410   -0.0420 C.ar      1 LIG        -0.1500
     26 H9         -3.7550    2.4150   -0.0620 H         1 LIG         0.1500
     27 C12        -2.0820    1.1110   -0.1480 C.ar      1 LIG        -0.1500
     28 H10        -2.6740    0.2400   -0.2540 H         1 LIG         0.1500
@<TRIPOS>BOND
  1   1   2  1   
  2   2   3  1   
  3   2   4  1   
  4   2   5  1   
  5   5   6  ar  
  6   5  20  ar  
  7   6   7  ar  
  8   7   8  1   
  9   7  18  ar  
 10   8   9  1   
 11   8  10  1   
 12  10  11  1   
 13  10  12  1   
 14  10  15  1   
 15  12  13  1   
 16  12  14  1   
 17  12  15  1   
 18  15  16  1   
 19  15  17  1   
 20  18  19  ar  
 21  18  27  ar  
 22  19  20  ar  
 23  19  21  ar  
 24  21  22  1   
 25  21  23  ar  
 26  23  24  1   
 27  23  25  ar  
 28  25  26  1   
 29  25  27  ar  
 30  27  28  1   
@<TRIPOS>SUBSTRUCTURE
  1 ****   7 GROUP 4 **** **** 0

# MOE 2018.01 (io_trps.svl 2018.01)

@<TRIPOS>MOLECULE
CHEMBL4644723
49 51 1 0 0 
SMALL
USER_CHARGES


@<TRIPOS>ATOM
      1 O1          4.6790    0.8520    0.6190 O.2       1 LIG        -0.5700
      2 C1          3.7870    0.0230    0.4840 C.2       1 LIG         0.6900
      3 N1          2.4400    0.2230    0.6950 N.am      1 LIG        -0.4770
      4 C2          1.8190    1.4860    1.0690 C.3       1 LIG         0.1400
      5 H1          0.8290    1.2860    1.4560 H         1 LIG         0.0800
      6 H2          2.4480    1.9750    1.8040 H         1 LIG         0.0800
      7 C3          1.7440    2.3870   -0.2020 C.3       1 LIG        -0.0800
      8 H3          2.7550    2.6630   -0.5160 H         1 LIG         0.0800
      9 C4          0.9660    3.6710    0.1560 C.3       1 LIG        -0.1600
     10 H4          1.3880    4.1170    1.0580 H         1 LIG         0.0800
     11 H5          1.0880    4.3940   -0.6530 H         1 LIG         0.0800
     12 C5         -0.5330    3.4150    0.3690 C.3       1 LIG         0.3430
     13 H6         -0.6590    2.7840    1.2530 H         1 LIG         0.0800
     14 H7         -1.0310    4.3690    0.5620 H         1 LIG         0.0800
     15 N2         -1.1350    2.7500   -0.8150 N.4       1 LIG        -0.9060
     16 H8         -2.1190    2.5760   -0.6520 H         1 LIG         0.4500
     17 H9         -1.0430    3.3580   -1.6180 H         1 LIG         0.4500
     18 C6         -0.4610    1.4660   -1.1240 C.3       1 LIG         0.3430
     19 H10        -0.9110    0.9940   -2.0020 H         1 LIG         0.0800
     20 H11        -0.5640    0.7780   -0.2820 H         1 LIG         0.0800
     21 C7          1.0240    1.7140   -1.3970 C.3       1 LIG        -0.1600
     22 H12         1.5060    0.7740   -1.6660 H         1 LIG         0.0800
     23 H13         1.1140    2.3630   -2.2700 H         1 LIG         0.0800
     24 C8          1.7760   -0.9450    0.3930 C.ar      1 LIG         0.4270
     25 N3          0.4630   -1.1510    0.4200 N.ar      1 LIG        -0.6200
     26 C9          0.1040   -2.3600   -0.0110 C.ar      1 LIG         0.7200
     27 N4         -1.2180   -2.6490   -0.0680 N.pl3     1 LIG        -0.8690
     28 H14        -1.3320   -3.6100   -0.4160 H         1 LIG         0.4000
     29 C10        -2.0480   -2.3580    1.1010 C.3       1 LIG         0.2090
     30 H15        -1.7450   -1.4440    1.6130 H         1 LIG         0.0800
     31 H16        -1.9990   -3.1900    1.8070 H         1 LIG         0.0800
     32 C11        -3.4800   -2.2150    0.5660 C.3       1 LIG        -0.1600
     33 H17        -3.7300   -3.1100   -0.0080 H         1 LIG         0.0800
     34 H18        -4.1610   -2.1770    1.4170 H         1 LIG         0.0800
     35 C12        -3.7240   -0.9750   -0.3160 C.3       1 LIG        -0.1600
     36 H19        -4.7350   -1.0410   -0.7230 H         1 LIG         0.0800
     37 H20        -3.0260   -0.9810   -1.1560 H         1 LIG         0.0800
     38 C13        -3.5940    0.3430    0.4580 C.3       1 LIG        -0.2400
     39 H21        -2.5730    0.4770    0.8120 H         1 LIG         0.0800
     40 H22        -3.8700    1.1710   -0.1940 H         1 LIG         0.0800
     41 H23        -4.2720    0.3350    1.3130 H         1 LIG         0.0800
     42 N5          0.9050   -3.3470   -0.4420 N.ar      1 LIG        -0.6200
     43 C14         2.2020   -3.1100   -0.4410 C.ar      1 LIG         0.4100
     44 N6          2.9920   -4.1300   -0.8820 N.pl3     1 LIG        -0.9000
     45 H24         2.4880   -5.0270   -0.9190 H         1 LIG         0.4000
     46 H25         3.9360   -4.1700   -0.4810 H         1 LIG         0.4000
     47 C15         2.6900   -1.8730   -0.0180 C.ar      1 LIG         0.1170
     48 N7          3.9480   -1.2580    0.0610 N.am      1 LIG        -0.5470
     49 H26         4.8690   -1.6220   -0.2130 H         1 LIG         0.3700
@<TRIPOS>BOND
  1   1   2  2   
  2   2   3  am  
  3   2  48  am  
  4   3   4  1   
  5   3  24  1   
  6   4   5  1   
  7   4   6  1   
  8   4   7  1   
  9   7   8  1   
 10   7   9  1   
 11   7  21  1   
 12   9  10  1   
 13   9  11  1   
 14   9  12  1   
 15  12  13  1   
 16  12  14  1   
 17  12  15  1   
 18  15  16  1   
 19  15  17  1   
 20  15  18  1   
 21  18  19  1   
 22  18  20  1   
 23  18  21  1   
 24  21  22  1   
 25  21  23  1   
 26  24  25  ar  
 27  24  47  ar  
 28  25  26  ar  
 29  26  27  1   
 30  26  42  ar  
 31  27  28  1   
 32  27  29  1   
 33  29  30  1   
 34  29  31  1   
 35  29  32  1   
 36  32  33  1   
 37  32  34  1   
 38  32  35  1   
 39  35  36  1   
 40  35  37  1   
 41  35  38  1   
 42  38  39  1   
 43  38  40  1   
 44  38  41  1   
 45  42  43  ar  
 46  43  44  1   
 47  43  47  ar  
 48  44  45  1   
 49  44  46  1   
 50  47  48  1   
 51  48  49  1   
@<TRIPOS>SUBSTRUCTURE
  1 ****  25 GROUP 4 **** **** 0

# MOE 2018.01 (io_trps.svl 2018.01)

@<TRIPOS>MOLECULE
CHEMBL4514055
30 31 1 0 0 
SMALL
USER_CHARGES


@<TRIPOS>ATOM
      1 F1          4.2820    1.6310   -1.1790 F         1 LIG        -0.3400
      2 C1          4.0990    0.9330   -0.0280 C.3       1 LIG         1.1640
      3 F2          4.1180    1.8090    1.0100 F         1 LIG        -0.3400
      4 F3          5.1580    0.0900    0.1190 F         1 LIG        -0.3400
      5 C2          2.7320    0.1560   -0.0660 C.ar      1 LIG         0.4760
      6 N1          1.5710    0.8760   -0.2360 N.ar      1 LIG        -0.6200
      7 C3          0.4290    0.2580   -0.2620 C.ar      1 LIG         0.4100
      8 N2         -0.6400    1.0900   -0.3590 N.pl3     1 LIG        -0.8690
      9 H1         -0.3650    2.0340   -0.6640 H         1 LIG         0.4000
     10 C4         -1.6140    1.1280    0.7290 C.3       1 LIG         0.2090
     11 H2         -1.8380    0.1280    1.1040 H         1 LIG         0.0800
     12 H3         -1.2430    1.7410    1.5540 H         1 LIG         0.0800
     13 C5         -2.8820    1.7500    0.1320 C.3       1 LIG        -0.1600
     14 H4         -3.1750    1.1870   -0.7550 H         1 LIG         0.0800
     15 H5         -3.6810    1.6580    0.8680 H         1 LIG         0.0800
     16 C6         -2.7290    3.2360   -0.2330 C.3       1 LIG        -0.2400
     17 H6         -2.0030    3.3570   -1.0380 H         1 LIG         0.0800
     18 H7         -2.4010    3.8050    0.6380 H         1 LIG         0.0800
     19 H8         -3.6890    3.6280   -0.5710 H         1 LIG         0.0800
     20 C7          0.3230   -1.1600   -0.1840 C.ar      1 LIG         0.0000
     21 C8          1.5260   -1.8450    0.0260 C.ar      1 LIG         0.3100
     22 N3          2.7090   -1.1550    0.0740 N.ar      1 LIG        -0.6200
     23 C9          1.5160   -3.2470    0.1640 C.ar      1 LIG        -0.1500
     24 H9          2.4300   -3.7490    0.3470 H         1 LIG         0.1500
     25 C10         0.3350   -3.9510    0.0540 C.ar      1 LIG        -0.1500
     26 H10         0.3290   -5.0070    0.1550 H         1 LIG         0.1500
     27 C11        -0.8700   -3.2710   -0.2060 C.ar      1 LIG        -0.1500
     28 H11        -1.7700   -3.8230   -0.3100 H         1 LIG         0.1500
     29 C12        -0.8770   -1.8980   -0.3320 C.ar      1 LIG        -0.1500
     30 H12        -1.7810   -1.3890   -0.5510 H         1 LIG         0.1500
@<TRIPOS>BOND
  1   1   2  1   
  2   2   3  1   
  3   2   4  1   
  4   2   5  1   
  5   5   6  ar  
  6   5  22  ar  
  7   6   7  ar  
  8   7   8  1   
  9   7  20  ar  
 10   8   9  1   
 11   8  10  1   
 12  10  11  1   
 13  10  12  1   
 14  10  13  1   
 15  13  14  1   
 16  13  15  1   
 17  13  16  1   
 18  16  17  1   
 19  16  18  1   
 20  16  19  1   
 21  20  21  ar  
 22  20  29  ar  
 23  21  22  ar  
 24  21  23  ar  
 25  23  24  1   
 26  23  25  ar  
 27  25  26  1   
 28  25  27  ar  
 29  27  28  1   
 30  27  29  ar  
 31  29  30  1   
@<TRIPOS>SUBSTRUCTURE
  1 ****   7 GROUP 4 **** **** 0

# MOE 2018.01 (io_trps.svl 2018.01)

@<TRIPOS>MOLECULE
CHEMBL3975213
65 67 1 0 0 
SMALL
USER_CHARGES


@<TRIPOS>ATOM
      1 S1          9.0200   -1.2750    0.4540 S.o2      1 LIG         1.2040
      2 O1          8.5530   -1.9540    1.6120 O.2       1 LIG        -0.6500
      3 O2         10.3430   -0.7510    0.4990 O.2       1 LIG        -0.6500
      4 C1          8.9140   -2.3900   -0.9220 C.3       1 LIG        -0.1350
      5 H1          9.2170   -1.9440   -1.8570 H         1 LIG         0.0800
      6 H2          7.9210   -2.7880   -1.0700 H         1 LIG         0.0800
      7 H3          9.5480   -3.2550   -0.7990 H         1 LIG         0.0800
      8 C2          7.8730    0.0460    0.0260 C.ar      1 LIG        -0.0090
      9 C3          6.4970   -0.1330    0.1820 C.ar      1 LIG        -0.1500
     10 H4          6.1350   -1.0560    0.5550 H         1 LIG         0.1500
     11 C4          5.6140    0.8960   -0.1590 C.ar      1 LIG         0.1170
     12 N1          4.2060    0.7690   -0.0570 N.am      1 LIG        -0.5470
     13 H5          3.6590    1.3380   -0.7110 H         1 LIG         0.3700
     14 C5          3.4820    0.0030    0.8390 C.2       1 LIG         0.5440
     15 O3          4.0680   -0.6980    1.6450 O.2       1 LIG        -0.5700
     16 C6          2.0210    0.0660    0.7900 C.ar      1 LIG         0.0860
     17 C7          1.3410    1.2590    0.5180 C.ar      1 LIG        -0.1500
     18 H6          1.8750    2.1570    0.3420 H         1 LIG         0.1500
     19 C8         -0.0480    1.2610    0.5120 C.ar      1 LIG         0.3490
     20 N2         -0.7090    2.4670    0.2510 N.pl3     1 LIG        -0.6530
     21 H7         -0.8230    2.6860   -0.7550 H         1 LIG         0.4500
     22 C9         -1.6950    2.7590    1.0440 C.cat     1 LIG         0.6040
     23 N3         -1.3830    3.0460    2.2690 N.pl3     1 LIG        -0.7540
     24 H8         -0.3920    3.1300    2.5460 H         1 LIG         0.4500
     25 H9         -2.1180    3.1910    2.9850 H         1 LIG         0.4500
     26 C10        -3.0890    2.5240    0.5560 C.3       1 LIG         0.0830
     27 H10        -3.7740    3.0250    1.2270 H         1 LIG         0.0800
     28 H11        -3.1920    2.8610   -0.4660 H         1 LIG         0.0800
     29 C11        -3.2780    0.9990    0.6110 C.2       1 LIG        -0.1240
     30 C12        -4.6880    0.6280    0.6120 C.2       1 LIG         0.6160
     31 O4         -5.5010    1.2880    1.2470 O.2       1 LIG        -0.5700
     32 N4         -5.1490   -0.4680   -0.1000 N.am      1 LIG        -0.6600
     33 C13        -6.4720   -1.0510    0.2160 C.3       1 LIG         0.1400
     34 H12        -7.1310   -0.3170    0.6650 H         1 LIG         0.0800
     35 H13        -6.9120   -1.4910   -0.6690 H         1 LIG         0.0800
     36 C14        -6.1780   -2.1620    1.2380 C.3       1 LIG        -0.1600
     37 H14        -5.7370   -1.7320    2.1390 H         1 LIG         0.0800
     38 H15        -5.4960   -2.8990    0.8110 H         1 LIG         0.0800
     39 C15        -7.5170   -2.8270    1.5840 C.3       1 LIG        -0.2400
     40 H16        -7.9690   -3.2590    0.6890 H         1 LIG         0.0800
     41 H17        -7.3500   -3.6230    2.3110 H         1 LIG         0.0800
     42 H18        -8.2000   -2.0950    2.0170 H         1 LIG         0.0800
     43 C16        -4.5400   -0.9050   -1.3730 C.3       1 LIG         0.1400
     44 H19        -3.4660   -0.8010   -1.3620 H         1 LIG         0.0800
     45 H20        -4.8390   -1.9240   -1.5900 H         1 LIG         0.0800
     46 C17        -5.1160    0.0300   -2.4520 C.3       1 LIG        -0.1600
     47 H21        -6.2020   -0.0740   -2.5050 H         1 LIG         0.0800
     48 H22        -4.8660    1.0690   -2.2330 H         1 LIG         0.0800
     49 C18        -4.4900   -0.3850   -3.7900 C.3       1 LIG        -0.2400
     50 H23        -4.7460   -1.4210   -4.0210 H         1 LIG         0.0800
     51 H24        -3.4050   -0.2790   -3.7550 H         1 LIG         0.0800
     52 H25        -4.8790    0.2530   -4.5850 H         1 LIG         0.0800
     53 C19        -2.3040    0.0290    0.7090 C.2       1 LIG        -0.1780
     54 H26        -2.6520   -0.9720    0.7920 H         1 LIG         0.1500
     55 C20        -0.8310    0.1060    0.7450 C.ar      1 LIG         0.0280
     56 C21        -0.1220   -1.0720    1.0220 C.ar      1 LIG        -0.1500
     57 H27        -0.6510   -1.9720    1.2200 H         1 LIG         0.1500
     58 C22         1.2680   -1.0900    1.0500 C.ar      1 LIG        -0.1500
     59 H28         1.7760   -1.9970    1.2740 H         1 LIG         0.1500
     60 C23         6.0980    2.1060   -0.6570 C.ar      1 LIG        -0.1500
     61 H29         5.4300    2.8860   -0.9150 H         1 LIG         0.1500
     62 C24         7.4670    2.2900   -0.8020 C.ar      1 LIG        -0.1500
     63 H30         7.8430    3.2110   -1.1700 H         1 LIG         0.1500
     64 C25         8.3490    1.2680   -0.4610 C.ar      1 LIG        -0.1500
     65 H31         9.3950    1.4170   -0.5670 H         1 LIG         0.1500
@<TRIPOS>BOND
  1   1   2  2   
  2   1   3  2   
  3   1   4  1   
  4   1   8  1   
  5   4   5  1   
  6   4   6  1   
  7   4   7  1   
  8   8   9  ar  
  9   8  64  ar  
 10   9  10  1   
 11   9  11  ar  
 12  11  12  1   
 13  11  60  ar  
 14  12  13  1   
 15  12  14  am  
 16  14  15  2   
 17  14  16  1   
 18  16  17  ar  
 19  16  58  ar  
 20  17  18  1   
 21  17  19  ar  
 22  19  20  1   
 23  19  55  ar  
 24  20  21  1   
 25  20  22  ar  
 26  22  23  ar  
 27  22  26  1   
 28  23  24  1   
 29  23  25  1   
 30  26  27  1   
 31  26  28  1   
 32  26  29  1   
 33  29  30  1   
 34  29  53  2   
 35  30  31  2   
 36  30  32  am  
 37  32  33  1   
 38  32  43  1   
 39  33  34  1   
 40  33  35  1   
 41  33  36  1   
 42  36  37  1   
 43  36  38  1   
 44  36  39  1   
 45  39  40  1   
 46  39  41  1   
 47  39  42  1   
 48  43  44  1   
 49  43  45  1   
 50  43  46  1   
 51  46  47  1   
 52  46  48  1   
 53  46  49  1   
 54  49  50  1   
 55  49  51  1   
 56  49  52  1   
 57  53  54  1   
 58  53  55  1   
 59  55  56  ar  
 60  56  57  1   
 61  56  58  ar  
 62  58  59  1   
 63  60  61  1   
 64  60  62  ar  
 65  62  63  1   
 66  62  64  ar  
 67  64  65  1   
@<TRIPOS>SUBSTRUCTURE
  1 ****  17 GROUP 4 **** **** 0

# MOE 2018.01 (io_trps.svl 2018.01)

@<TRIPOS>MOLECULE
CHEMBL4473706
30 31 1 0 0 
SMALL
USER_CHARGES


@<TRIPOS>ATOM
      1 F1         -3.9610    1.1640   -1.1130 F         1 LIG        -0.3400
      2 C1         -3.3800    1.7710   -0.0460 C.3       1 LIG         1.1640
      3 F2         -3.9380    1.2670    1.0860 F         1 LIG        -0.3400
      4 F3         -3.6850    3.0970   -0.1060 F         1 LIG        -0.3400
      5 C2         -1.8270    1.5280   -0.0470 C.ar      1 LIG         0.4760
      6 N1         -1.3670    0.2330   -0.0760 N.ar      1 LIG        -0.6200
      7 C3         -0.0860   -0.0090   -0.0780 C.ar      1 LIG         0.4100
      8 N2          0.3120   -1.3210   -0.1130 N.pl3     1 LIG        -0.8690
      9 H1          1.3150   -1.5200   -0.0530 H         1 LIG         0.4000
     10 C4         -0.5800   -2.4630   -0.0690 C.3       1 LIG         0.2890
     11 H2         -1.6280   -2.2200   -0.2660 H         1 LIG         0.0800
     12 C5         -0.4430   -3.0590    1.3280 C.3       1 LIG        -0.2400
     13 H3          0.5940   -3.3300    1.5260 H         1 LIG         0.0800
     14 H4         -1.0700   -3.9460    1.4100 H         1 LIG         0.0800
     15 H5         -0.7700   -2.3250    2.0650 H         1 LIG         0.0800
     16 C6         -0.0790   -3.4310   -1.1350 C.3       1 LIG        -0.2400
     17 H6          0.9570   -3.7090   -0.9410 H         1 LIG         0.0800
     18 H7         -0.1470   -2.9540   -2.1130 H         1 LIG         0.0800
     19 H8         -0.7000   -4.3260   -1.1340 H         1 LIG         0.0800
     20 C7          0.8770    1.0390   -0.0470 C.ar      1 LIG         0.0000
     21 C8          0.3620    2.3420   -0.0180 C.ar      1 LIG         0.3100
     22 N3         -0.9920    2.5460   -0.0180 N.ar      1 LIG        -0.6200
     23 C9          1.2420    3.4410    0.0130 C.ar      1 LIG        -0.1500
     24 H9          0.8380    4.4190    0.0350 H         1 LIG         0.1500
     25 C10         2.6070    3.2430    0.0150 C.ar      1 LIG        -0.1500
     26 H10         3.2680    4.0720    0.0380 H         1 LIG         0.1500
     27 C11         3.1310    1.9370   -0.0150 C.ar      1 LIG        -0.1500
     28 H11         4.1820    1.7960   -0.0130 H         1 LIG         0.1500
     29 C12         2.2820    0.8500   -0.0450 C.ar      1 LIG        -0.1500
     30 H12         2.6850   -0.1290   -0.0690 H         1 LIG         0.1500
@<TRIPOS>BOND
  1   1   2  1   
  2   2   3  1   
  3   2   4  1   
  4   2   5  1   
  5   5   6  ar  
  6   5  22  ar  
  7   6   7  ar  
  8   7   8  1   
  9   7  20  ar  
 10   8   9  1   
 11   8  10  1   
 12  10  11  1   
 13  10  12  1   
 14  10  16  1   
 15  12  13  1   
 16  12  14  1   
 17  12  15  1   
 18  16  17  1   
 19  16  18  1   
 20  16  19  1   
 21  20  21  ar  
 22  20  29  ar  
 23  21  22  ar  
 24  21  23  ar  
 25  23  24  1   
 26  23  25  ar  
 27  25  26  1   
 28  25  27  ar  
 29  27  28  1   
 30  27  29  ar  
 31  29  30  1   
@<TRIPOS>SUBSTRUCTURE
  1 ****   7 GROUP 4 **** **** 0

# MOE 2018.01 (io_trps.svl 2018.01)

@<TRIPOS>MOLECULE
CHEMBL195276
36 38 1 0 0 
SMALL
USER_CHARGES


@<TRIPOS>ATOM
      1 O1          3.4650   -0.8630    0.5750 O.3       1 LIG        -0.6800
      2 H1          4.0170   -0.6530    1.3330 H         1 LIG         0.4000
      3 C1          2.7970    0.3000    0.1670 C.3       1 LIG         0.2800
      4 C2          1.9040   -0.0060   -1.0680 C.3       1 LIG         0.0960
      5 H2          2.5310   -0.4910   -1.8040 H         1 LIG         0.0800
      6 H3          1.4910    0.9010   -1.4690 H         1 LIG         0.0800
      7 N1          0.8360   -0.9520   -0.6960 N.pl3     1 LIG         0.0480
      8 C3         -0.4810   -0.7600   -0.4080 C.ar      1 LIG        -0.1520
      9 C4         -0.9640   -2.0280   -0.1930 C.ar      1 LIG         0.2270
     10 C5         -2.3410   -2.2230    0.1260 C.ar      1 LIG         0.4610
     11 N2         -2.9000   -3.4140    0.3530 N.pl3     1 LIG        -0.9000
     12 H4         -3.8920   -3.5780    0.5850 H         1 LIG         0.4000
     13 H5         -2.2770   -4.2470    0.2930 H         1 LIG         0.4000
     14 N3         -3.1580   -1.1730    0.2110 N.ar      1 LIG        -0.1790
     15 H6         -4.1410   -1.3520    0.4390 H         1 LIG         0.4570
     16 C6         -2.7080    0.1490    0.0050 C.ar      1 LIG         0.3610
     17 C7         -1.3460    0.3960   -0.3030 C.ar      1 LIG         0.0000
     18 C8         -0.9610    1.7420   -0.4730 C.ar      1 LIG        -0.1500
     19 H7          0.0390    1.9990   -0.6860 H         1 LIG         0.1500
     20 C9         -1.8880    2.7660   -0.3560 C.ar      1 LIG        -0.1500
     21 H8         -1.5820    3.7740   -0.4890 H         1 LIG         0.1500
     22 C10        -3.2290    2.4910   -0.0620 C.ar      1 LIG        -0.1500
     23 H9         -3.9210    3.2930    0.0200 H         1 LIG         0.1500
     24 C11        -3.6450    1.1850    0.1210 C.ar      1 LIG        -0.1500
     25 H10        -4.6600    0.9810    0.3470 H         1 LIG         0.1500
     26 N4          0.0140   -2.9710   -0.3290 N.2       1 LIG        -0.5650
     27 C12         1.0770   -2.2980   -0.6260 C.2       1 LIG         0.0360
     28 H11         2.0540   -2.6770   -0.8040 H         1 LIG         0.1500
     29 C13         3.8830    1.3010   -0.2290 C.3       1 LIG        -0.2400
     30 H12         3.4320    2.2390   -0.5510 H         1 LIG         0.0800
     31 H13         4.4810    0.8950   -1.0460 H         1 LIG         0.0800
     32 H14         4.5410    1.5010    0.6180 H         1 LIG         0.0800
     33 C14         2.0210    0.8430    1.3730 C.3       1 LIG        -0.2400
     34 H15         1.5070    1.7660    1.1100 H         1 LIG         0.0800
     35 H16         2.7080    1.0550    2.1920 H         1 LIG         0.0800
     36 H17         1.2960    0.1080    1.7230 H         1 LIG         0.0800
@<TRIPOS>BOND
  1   1   2  1   
  2   1   3  1   
  3   3   4  1   
  4   3  29  1   
  5   3  33  1   
  6   4   5  1   
  7   4   6  1   
  8   4   7  1   
  9   7   8  1   
 10   7  27  1   
 11   8   9  ar  
 12   8  17  ar  
 13   9  10  ar  
 14   9  26  1   
 15  10  11  1   
 16  10  14  ar  
 17  11  12  1   
 18  11  13  1   
 19  14  15  1   
 20  14  16  ar  
 21  16  17  ar  
 22  16  24  ar  
 23  17  18  ar  
 24  18  19  1   
 25  18  20  ar  
 26  20  21  1   
 27  20  22  ar  
 28  22  23  1   
 29  22  24  ar  
 30  24  25  1   
 31  26  27  2   
 32  27  28  1   
 33  29  30  1   
 34  29  31  1   
 35  29  32  1   
 36  33  34  1   
 37  33  35  1   
 38  33  36  1   
@<TRIPOS>SUBSTRUCTURE
  1 ****   8 GROUP 4 **** **** 0

# MOE 2018.01 (io_trps.svl 2018.01)

@<TRIPOS>MOLECULE
CHEMBL4285025
45 48 1 0 0 
SMALL
USER_CHARGES


@<TRIPOS>ATOM
      1 N1          4.6850   -0.8650   -0.4210 N.4       1 LIG        -0.9590
      2 H1          5.4650   -1.5120   -0.4330 H         1 LIG         0.4500
      3 C1          4.9970    0.2310    0.5170 C.3       1 LIG         0.3430
      4 H2          5.5660    1.0070    0.0180 H         1 LIG         0.0800
      5 H3          4.1070    0.6220    0.9980 H         1 LIG         0.0800
      6 C2          5.9000   -0.4130    1.5710 C.3       1 LIG        -0.2400
      7 H4          6.7980   -0.8040    1.0920 H         1 LIG         0.0800
      8 H5          5.3610   -1.1970    2.1030 H         1 LIG         0.0800
      9 H6          6.1820    0.3700    2.2770 H         1 LIG         0.0800
     10 C3          3.4340   -1.5860    0.0120 C.3       1 LIG         0.5230
     11 H7          3.2650   -2.4280   -0.6490 H         1 LIG         0.0800
     12 H8          3.5520   -1.9240    1.0360 H         1 LIG         0.0800
     13 C4          2.1730   -0.7000   -0.0370 C.2       1 LIG         0.0060
     14 N2          0.9330   -1.2850    0.0170 N.pl3     1 LIG         0.0330
     15 H9          0.7300   -2.3010    0.0830 H         1 LIG         0.2700
     16 C5          0.0030   -0.3170   -0.0210 C.ar      1 LIG        -0.1520
     17 C6          0.7030    0.8550   -0.0930 C.ar      1 LIG         0.2270
     18 C7         -0.0280    2.0880   -0.1340 C.ar      1 LIG         0.4610
     19 N3          0.5290    3.2990   -0.2010 N.pl3     1 LIG        -0.9000
     20 H10         0.0080    4.1920   -0.2270 H         1 LIG         0.4000
     21 H11         1.5650    3.3650   -0.2190 H         1 LIG         0.4000
     22 N4         -1.3690    2.0720   -0.1040 N.ar      1 LIG        -0.1790
     23 H12        -1.8590    2.9750   -0.1340 H         1 LIG         0.4570
     24 C8         -2.1140    0.8680   -0.0340 C.ar      1 LIG         0.3610
     25 C9         -1.4270   -0.3660    0.0060 C.ar      1 LIG         0.0000
     26 C10        -2.1860   -1.5460    0.0710 C.ar      1 LIG        -0.1500
     27 H13        -1.7060   -2.4910    0.1080 H         1 LIG         0.1500
     28 C11        -3.5690   -1.4830    0.0930 C.ar      1 LIG        -0.1500
     29 H14        -4.1280   -2.3830    0.1570 H         1 LIG         0.1500
     30 C12        -4.2520   -0.2460    0.0490 C.ar      1 LIG         0.0530
     31 C13        -5.7030   -0.1880    0.0650 C.2       1 LIG        -0.2050
     32 N5         -6.5080   -1.1640   -0.4440 N.pl3     1 LIG         0.3000
     33 H15        -6.1730   -2.0370   -0.8910 H         1 LIG         0.2700
     34 N6         -7.8240   -0.8760   -0.3200 N.2       1 LIG        -0.7070
     35 C14        -7.8550    0.2880    0.2710 C.2       1 LIG         0.1390
     36 H16        -8.7570    0.7920    0.5140 H         1 LIG         0.1500
     37 C15        -6.5740    0.7520    0.5250 C.2       1 LIG        -0.1500
     38 H17        -6.3300    1.6660    0.9990 H         1 LIG         0.1500
     39 C16        -3.5090    0.9310   -0.0100 C.ar      1 LIG        -0.1500
     40 H18        -4.0100    1.8630   -0.0430 H         1 LIG         0.1500
     41 N7          2.0560    0.6000   -0.1040 N.2       1 LIG        -0.5650
     42 C17         4.4960   -0.2840   -1.7770 C.3       1 LIG         0.2630
     43 H19         3.7310    0.4830   -1.7340 H         1 LIG         0.0800
     44 H20         4.2040   -1.0760   -2.4560 H         1 LIG         0.0800
     45 H21         5.4370    0.1510   -2.0920 H         1 LIG         0.0800
@<TRIPOS>BOND
  1   1   2  1   
  2   1   3  1   
  3   1  10  1   
  4   1  42  1   
  5   3   4  1   
  6   3   5  1   
  7   3   6  1   
  8   6   7  1   
  9   6   8  1   
 10   6   9  1   
 11  10  11  1   
 12  10  12  1   
 13  10  13  1   
 14  13  14  1   
 15  13  41  2   
 16  14  15  1   
 17  14  16  1   
 18  16  17  ar  
 19  16  25  ar  
 20  17  18  ar  
 21  17  41  1   
 22  18  19  1   
 23  18  22  ar  
 24  19  20  1   
 25  19  21  1   
 26  22  23  1   
 27  22  24  ar  
 28  24  25  ar  
 29  24  39  ar  
 30  25  26  ar  
 31  26  27  1   
 32  26  28  ar  
 33  28  29  1   
 34  28  30  ar  
 35  30  31  1   
 36  30  39  ar  
 37  31  32  1   
 38  31  37  2   
 39  32  33  1   
 40  32  34  1   
 41  34  35  2   
 42  35  36  1   
 43  35  37  1   
 44  37  38  1   
 45  39  40  1   
 46  42  43  1   
 47  42  44  1   
 48  42  45  1   
@<TRIPOS>SUBSTRUCTURE
  1 ****  25 GROUP 4 **** **** 0

# MOE 2018.01 (io_trps.svl 2018.01)

@<TRIPOS>MOLECULE
CHEMBL4288029
54 59 1 0 0 
SMALL
USER_CHARGES


@<TRIPOS>ATOM
      1 O1          2.3660    0.9070    2.9400 O.2       1 LIG        -0.5700
      2 C1          3.2590    0.6050    2.1530 C.2       1 LIG         0.5690
      3 N1          3.6350    1.3410    1.1140 N.am      1 LIG        -0.6600
      4 C2          3.0640    2.6640    0.8250 C.3       1 LIG         0.3200
      5 H1          2.8970    3.2010    1.7500 H         1 LIG         0.0800
      6 H2          3.7020    3.2010    0.1340 H         1 LIG         0.0800
      7 C3          1.7290    2.3940    0.1540 C.2       1 LIG         0.0060
      8 N2          0.7070    1.8490    0.8760 N.pl3     1 LIG         0.0330
      9 H3          0.7870    1.5760    1.8780 H         1 LIG         0.2700
     10 C4         -0.3340    1.6640    0.0550 C.ar      1 LIG        -0.1520
     11 C5          0.0880    2.1220   -1.1620 C.ar      1 LIG         0.2270
     12 C6         -0.8110    2.0450   -2.2720 C.ar      1 LIG         0.4610
     13 N3         -0.5180    2.4540   -3.5080 N.pl3     1 LIG        -0.9000
     14 H4         -1.1500    2.3990   -4.3220 H         1 LIG         0.4000
     15 H5          0.4310    2.8520   -3.6680 H         1 LIG         0.4000
     16 N4         -2.0380    1.5300   -2.1030 N.ar      1 LIG        -0.1790
     17 H6         -2.6560    1.4870   -2.9210 H         1 LIG         0.4570
     18 C7         -2.4910    1.0410   -0.8510 C.ar      1 LIG         0.3610
     19 C8         -1.6290    1.0980    0.2690 C.ar      1 LIG         0.0000
     20 C9         -2.0810    0.5910    1.5020 C.ar      1 LIG        -0.1500
     21 H7         -1.4450    0.6170    2.3520 H         1 LIG         0.1500
     22 C10        -3.3530    0.0490    1.6090 C.ar      1 LIG        -0.1500
     23 H8         -3.6820   -0.3430    2.5390 H         1 LIG         0.1500
     24 C11        -4.1950    0.0130    0.4780 C.ar      1 LIG        -0.0230
     25 N5         -5.5190   -0.5580    0.5790 N.pl3     1 LIG         0.5930
     26 N6         -6.1920   -1.0190   -0.5220 N.2       1 LIG        -0.7070
     27 C12        -7.3340   -1.4550   -0.0680 C.2       1 LIG         0.1390
     28 H9         -8.0860   -1.8810   -0.6850 H         1 LIG         0.1500
     29 C13        -7.4220   -1.2830    1.3090 C.2       1 LIG        -0.1500
     30 H10        -8.2420   -1.5470    1.9280 H         1 LIG         0.1500
     31 C14        -6.2660   -0.7100    1.7060 C.2       1 LIG        -0.3020
     32 H11        -5.9280   -0.4050    2.6600 H         1 LIG         0.1500
     33 C15        -3.7770    0.5070   -0.7550 C.ar      1 LIG        -0.1500
     34 H12        -4.4200    0.4700   -1.5980 H         1 LIG         0.1500
     35 N7          1.3830    2.5750   -1.0870 N.2       1 LIG        -0.5650
     36 C16         4.5090    0.6340    0.1740 C.3       1 LIG         0.1400
     37 H13         4.1000    0.6640   -0.8300 H         1 LIG         0.0800
     38 H14         5.5080    1.0450    0.2400 H         1 LIG         0.0800
     39 C17         4.5180   -0.8220    0.7120 C.3       1 LIG         0.0640
     40 C18         3.6100   -1.7010   -0.1470 C.ar      1 LIG        -0.1440
     41 C19         2.2680   -1.3850   -0.3720 C.ar      1 LIG        -0.1500
     42 H15         1.8480   -0.5120    0.0520 H         1 LIG         0.1500
     43 C20         1.4660   -2.2130   -1.1510 C.ar      1 LIG        -0.1500
     44 H16         0.4480   -1.9690   -1.3110 H         1 LIG         0.1500
     45 C21         1.9990   -3.3640   -1.7180 C.ar      1 LIG        -0.1500
     46 H17         1.3900   -3.9980   -2.3110 H         1 LIG         0.1500
     47 C22         3.3350   -3.6860   -1.5040 C.ar      1 LIG        -0.1500
     48 H18         3.7430   -4.5640   -1.9360 H         1 LIG         0.1500
     49 C23         4.1350   -2.8580   -0.7230 C.ar      1 LIG        -0.1500
     50 H19         5.1510   -3.1190   -0.5670 H         1 LIG         0.1500
     51 C24         3.9500   -0.7310    2.1370 C.3       1 LIG        -0.0990
     52 H20         4.7590   -0.7140    2.8640 H         1 LIG         0.0800
     53 H21         3.2490   -1.5360    2.3540 H         1 LIG         0.0800
     54 H22         5.5320   -1.2210    0.7510 H         1 LIG         0.0800
@<TRIPOS>BOND
  1   1   2  2   
  2   2   3  am  
  3   2  51  1   
  4   3   4  1   
  5   3  36  1   
  6   4   5  1   
  7   4   6  1   
  8   4   7  1   
  9   7   8  1   
 10   7  35  2   
 11   8   9  1   
 12   8  10  1   
 13  10  11  ar  
 14  10  19  ar  
 15  11  12  ar  
 16  11  35  1   
 17  12  13  1   
 18  12  16  ar  
 19  13  14  1   
 20  13  15  1   
 21  16  17  1   
 22  16  18  ar  
 23  18  19  ar  
 24  18  33  ar  
 25  19  20  ar  
 26  20  21  1   
 27  20  22  ar  
 28  22  23  1   
 29  22  24  ar  
 30  24  25  1   
 31  24  33  ar  
 32  25  26  1   
 33  25  31  1   
 34  26  27  2   
 35  27  28  1   
 36  27  29  1   
 37  29  30  1   
 38  29  31  2   
 39  31  32  1   
 40  33  34  1   
 41  36  37  1   
 42  36  38  1   
 43  36  39  1   
 44  39  40  1   
 45  39  51  1   
 46  39  54  1   
 47  40  41  ar  
 48  40  49  ar  
 49  41  42  1   
 50  41  43  ar  
 51  43  44  1   
 52  43  45  ar  
 53  45  46  1   
 54  45  47  ar  
 55  47  48  1   
 56  47  49  ar  
 57  49  50  1   
 58  51  52  1   
 59  51  53  1   
@<TRIPOS>SUBSTRUCTURE
  1 ****  10 GROUP 4 **** **** 0

# MOE 2018.01 (io_trps.svl 2018.01)

@<TRIPOS>MOLECULE
CHEMBL4276704
55 58 1 0 0 
SMALL
USER_CHARGES


@<TRIPOS>ATOM
      1 O1          4.1770   -1.8820   -1.2570 O.2       1 LIG        -0.5700
      2 C1          4.3630   -1.1780   -0.2700 C.2       1 LIG         0.5690
      3 N1          3.7840    0.0390   -0.1630 N.am      1 LIG        -0.6600
      4 C2          3.9450    0.9320    1.0060 C.3       1 LIG         0.1400
      5 H1          4.9240    0.8210    1.4500 H         1 LIG         0.0800
      6 H2          3.7630    1.9600    0.7150 H         1 LIG         0.0800
      7 C3          2.8720    0.5260    2.0310 C.3       1 LIG        -0.2400
      8 H3          2.9860   -0.5230    2.2980 H         1 LIG         0.0800
      9 H4          1.8850    0.7000    1.6080 H         1 LIG         0.0800
     10 H5          3.0070    1.1500    2.9140 H         1 LIG         0.0800
     11 C4          3.1650    0.6430   -1.3770 C.3       1 LIG         0.3200
     12 H6          3.6680    1.5770   -1.5920 H         1 LIG         0.0800
     13 H7          3.2070   -0.0150   -2.2340 H         1 LIG         0.0800
     14 C5          1.7060    0.9600   -1.0660 C.2       1 LIG         0.0060
     15 N2          0.6900    0.0200   -1.0690 N.pl3     1 LIG         0.0480
     16 C6          0.8730   -1.4120   -1.3680 C.3       1 LIG         0.0960
     17 H8          0.0690   -1.7600   -1.9970 H         1 LIG         0.0800
     18 H9          1.8200   -1.5770   -1.8590 H         1 LIG         0.0800
     19 C7          0.8850   -2.1630   -0.0220 C.3       1 LIG        -0.2400
     20 H10        -0.0380   -1.9770    0.5260 H         1 LIG         0.0800
     21 H11         1.7380   -1.8210    0.5610 H         1 LIG         0.0800
     22 H12         0.9910   -3.2270   -0.2340 H         1 LIG         0.0800
     23 C8         -0.4660    0.6650   -0.7500 C.ar      1 LIG        -0.1520
     24 C9         -0.0870    1.9700   -0.5650 C.ar      1 LIG         0.2270
     25 C10        -1.0600    2.9500   -0.2050 C.ar      1 LIG         0.4610
     26 N3         -0.7900    4.2430   -0.0050 N.pl3     1 LIG        -0.9000
     27 H13        -1.4800    4.9660    0.2520 H         1 LIG         0.4000
     28 H14         0.1980    4.5470   -0.1250 H         1 LIG         0.4000
     29 N4         -2.3360    2.5920   -0.0470 N.ar      1 LIG        -0.1790
     30 H15        -3.0050    3.3240    0.2140 H         1 LIG         0.4570
     31 C11        -2.7760    1.2610   -0.2300 C.ar      1 LIG         0.3610
     32 C12        -1.8460    0.2580   -0.5940 C.ar      1 LIG         0.0000
     33 C13        -2.3550   -1.0440   -0.7690 C.ar      1 LIG        -0.1500
     34 H16        -1.7250   -1.8450   -1.0430 H         1 LIG         0.1500
     35 C14        -3.6990   -1.3110   -0.5810 C.ar      1 LIG        -0.1500
     36 H17        -4.0580   -2.3020   -0.7160 H         1 LIG         0.1500
     37 C15        -4.6190   -0.3060   -0.2110 C.ar      1 LIG         0.0540
     38 C16        -6.0320   -0.6370   -0.0150 C.2       1 LIG         0.2350
     39 N5         -6.4870   -1.8740   -0.0020 N.2       1 LIG        -0.7070
     40 N6         -7.8200   -1.7710    0.2040 N.pl3     1 LIG         0.3000
     41 H18        -8.4470   -2.5970    0.2610 H         1 LIG         0.2700
     42 C17        -8.2150   -0.4850    0.3200 C.2       1 LIG        -0.3020
     43 H19        -9.2260   -0.2140    0.4830 H         1 LIG         0.1500
     44 C18        -7.0940    0.2530    0.1830 C.2       1 LIG        -0.1500
     45 H20        -7.0480    1.3090    0.2180 H         1 LIG         0.1500
     46 C19        -4.1350    0.9910   -0.0390 C.ar      1 LIG        -0.1500
     47 H21        -4.7990    1.7650    0.2410 H         1 LIG         0.1500
     48 N7          1.2520    2.1380   -0.7650 N.2       1 LIG        -0.5650
     49 C20         5.3110   -1.7140    0.8120 C.3       1 LIG        -0.0990
     50 H22         4.9690   -1.4330    1.8030 H         1 LIG         0.0800
     51 H23         5.2850   -2.8030    0.7610 H         1 LIG         0.0800
     52 C21         6.7640   -1.2520    0.6150 C.3       1 LIG        -0.2400
     53 H24         6.8270   -0.1650    0.6490 H         1 LIG         0.0800
     54 H25         7.1270   -1.5970   -0.3550 H         1 LIG         0.0800
     55 H26         7.3940   -1.6740    1.4000 H         1 LIG         0.0800
@<TRIPOS>BOND
  1   1   2  2   
  2   2   3  am  
  3   2  49  1   
  4   3   4  1   
  5   3  11  1   
  6   4   5  1   
  7   4   6  1   
  8   4   7  1   
  9   7   8  1   
 10   7   9  1   
 11   7  10  1   
 12  11  12  1   
 13  11  13  1   
 14  11  14  1   
 15  14  15  1   
 16  14  48  2   
 17  15  16  1   
 18  15  23  1   
 19  16  17  1   
 20  16  18  1   
 21  16  19  1   
 22  19  20  1   
 23  19  21  1   
 24  19  22  1   
 25  23  24  ar  
 26  23  32  ar  
 27  24  25  ar  
 28  24  48  1   
 29  25  26  1   
 30  25  29  ar  
 31  26  27  1   
 32  26  28  1   
 33  29  30  1   
 34  29  31  ar  
 35  31  32  ar  
 36  31  46  ar  
 37  32  33  ar  
 38  33  34  1   
 39  33  35  ar  
 40  35  36  1   
 41  35  37  ar  
 42  37  38  1   
 43  37  46  ar  
 44  38  39  2   
 45  38  44  1   
 46  39  40  1   
 47  40  41  1   
 48  40  42  1   
 49  42  43  1   
 50  42  44  2   
 51  44  45  1   
 52  46  47  1   
 53  49  50  1   
 54  49  51  1   
 55  49  52  1   
 56  52  53  1   
 57  52  54  1   
 58  52  55  1   
@<TRIPOS>SUBSTRUCTURE
  1 ****  23 GROUP 4 **** **** 0

# MOE 2018.01 (io_trps.svl 2018.01)

@<TRIPOS>MOLECULE
CHEMBL4280136
59 62 1 0 0 
SMALL
USER_CHARGES


@<TRIPOS>ATOM
      1 O1         -3.0180   -1.0190    1.5270 O.2       1 LIG        -0.5700
      2 C1         -3.3690   -0.3790    0.5440 C.2       1 LIG         0.7800
      3 O2         -3.9830   -0.9520   -0.5110 O.3       1 LIG        -0.4300
      4 C2         -4.3310   -2.3360   -0.6970 C.3       1 LIG         0.2800
      5 C3         -5.3250   -2.7930    0.3770 C.3       1 LIG        -0.2400
      6 H1         -5.6650   -3.8070    0.1650 H         1 LIG         0.0800
      7 H2         -6.1830   -2.1210    0.3940 H         1 LIG         0.0800
      8 H3         -4.8530   -2.7850    1.3590 H         1 LIG         0.0800
      9 C4         -3.0720   -3.2120   -0.7060 C.3       1 LIG        -0.2400
     10 H4         -3.3350   -4.2400   -0.9530 H         1 LIG         0.0800
     11 H5         -2.5970   -3.2010    0.2730 H         1 LIG         0.0800
     12 H6         -2.3680   -2.8330   -1.4460 H         1 LIG         0.0800
     13 C5         -5.0080   -2.4460   -2.0640 C.3       1 LIG        -0.2400
     14 H7         -5.2960   -3.4790   -2.2650 H         1 LIG         0.0800
     15 H8         -4.3240   -2.1070   -2.8410 H         1 LIG         0.0800
     16 H9         -5.8970   -1.8160   -2.0840 H         1 LIG         0.0800
     17 N1         -3.1510    0.9700    0.4410 N.am      1 LIG        -0.6600
     18 C6         -3.5540    1.7410   -0.7470 C.3       1 LIG         0.1400
     19 H10        -2.9310    2.6200   -0.8530 H         1 LIG         0.0800
     20 H11        -3.5270    1.1240   -1.6380 H         1 LIG         0.0800
     21 C7         -4.9980    2.1830   -0.4760 C.3       1 LIG        -0.2400
     22 H12        -5.0230    2.7940    0.4270 H         1 LIG         0.0800
     23 H13        -5.6230    1.2970   -0.3580 H         1 LIG         0.0800
     24 H14        -5.3360    2.7660   -1.3320 H         1 LIG         0.0800
     25 C8         -2.4370    1.6850    1.5150 C.3       1 LIG         0.3200
     26 H15        -2.8290    2.6910    1.5900 H         1 LIG         0.0800
     27 H16        -2.5200    1.1620    2.4570 H         1 LIG         0.0800
     28 C9         -0.9830    1.7800    1.0580 C.2       1 LIG         0.0060
     29 N2         -0.0170    0.8290    1.3360 N.pl3     1 LIG         0.0480
     30 C10        -0.1780   -0.3480    2.1930 C.3       1 LIG         0.0160
     31 H17         0.6940   -0.4110    2.8270 H         1 LIG         0.0800
     32 H18        -0.2850   -1.2070    1.5440 H         1 LIG         0.0800
     33 H19        -1.0500   -0.2210    2.8130 H         1 LIG         0.0800
     34 C11         1.1210    1.2030    0.7000 C.ar      1 LIG        -0.1520
     35 C12         0.8120    2.4030    0.1170 C.ar      1 LIG         0.2270
     36 C13         1.8160    3.1150   -0.6050 C.ar      1 LIG         0.4610
     37 N3          1.6210    4.2930   -1.2040 N.pl3     1 LIG        -0.9000
     38 H20         2.3310    4.8200   -1.7360 H         1 LIG         0.4000
     39 H21         0.6700    4.7120   -1.1340 H         1 LIG         0.4000
     40 N4          3.0460    2.6060   -0.7110 N.ar      1 LIG        -0.1790
     41 H22         3.7410    3.1520   -1.2300 H         1 LIG         0.4570
     42 C14         3.3990    1.3540   -0.1520 C.ar      1 LIG         0.3610
     43 C15         2.4270    0.6060    0.5530 C.ar      1 LIG         0.0000
     44 C16         2.8140   -0.6630    1.0250 C.ar      1 LIG        -0.1500
     45 H23         2.1240   -1.2920    1.5210 H         1 LIG         0.1500
     46 C17         4.1050   -1.1220    0.8350 C.ar      1 LIG        -0.1500
     47 H24         4.3750   -2.0820    1.2030 H         1 LIG         0.1500
     48 C18         5.0810   -0.3570    0.1590 C.ar      1 LIG         0.0540
     49 C19         6.4370   -0.8830   -0.0160 C.2       1 LIG         0.2350
     50 N5          6.7880   -2.1060    0.3320 N.2       1 LIG        -0.7070
     51 N6          8.0980   -2.2150    0.0130 N.pl3     1 LIG         0.3000
     52 H25         8.6480   -3.0810    0.1770 H         1 LIG         0.2700
     53 C20         8.5820   -1.0790   -0.5310 C.2       1 LIG        -0.3020
     54 H26         9.5910   -0.9810   -0.8400 H         1 LIG         0.1500
     55 C21         7.5430   -0.2180   -0.5580 C.2       1 LIG        -0.1500
     56 H27         7.5800    0.7740   -0.9230 H         1 LIG         0.1500
     57 C22         4.7060    0.8910   -0.3380 C.ar      1 LIG        -0.1500
     58 H28         5.4100    1.4810   -0.8630 H         1 LIG         0.1500
     59 N7         -0.4920    2.7420    0.3350 N.2       1 LIG        -0.5650
@<TRIPOS>BOND
  1   1   2  2   
  2   2   3  1   
  3   2  17  am  
  4   3   4  1   
  5   4   5  1   
  6   4   9  1   
  7   4  13  1   
  8   5   6  1   
  9   5   7  1   
 10   5   8  1   
 11   9  10  1   
 12   9  11  1   
 13   9  12  1   
 14  13  14  1   
 15  13  15  1   
 16  13  16  1   
 17  17  18  1   
 18  17  25  1   
 19  18  19  1   
 20  18  20  1   
 21  18  21  1   
 22  21  22  1   
 23  21  23  1   
 24  21  24  1   
 25  25  26  1   
 26  25  27  1   
 27  25  28  1   
 28  28  29  1   
 29  28  59  2   
 30  29  30  1   
 31  29  34  1   
 32  30  31  1   
 33  30  32  1   
 34  30  33  1   
 35  34  35  ar  
 36  34  43  ar  
 37  35  36  ar  
 38  35  59  1   
 39  36  37  1   
 40  36  40  ar  
 41  37  38  1   
 42  37  39  1   
 43  40  41  1   
 44  40  42  ar  
 45  42  43  ar  
 46  42  57  ar  
 47  43  44  ar  
 48  44  45  1   
 49  44  46  ar  
 50  46  47  1   
 51  46  48  ar  
 52  48  49  1   
 53  48  57  ar  
 54  49  50  2   
 55  49  55  1   
 56  50  51  1   
 57  51  52  1   
 58  51  53  1   
 59  53  54  1   
 60  53  55  2   
 61  55  56  1   
 62  57  58  1   
@<TRIPOS>SUBSTRUCTURE
  1 ****  34 GROUP 4 **** **** 0

# MOE 2018.01 (io_trps.svl 2018.01)

@<TRIPOS>MOLECULE
CHEMBL4290288
50 54 1 0 0 
SMALL
USER_CHARGES


@<TRIPOS>ATOM
      1 O1         -3.9540    2.3020   -1.1840 O.2       1 LIG        -0.5700
      2 C1         -4.7610    1.9040   -0.3490 C.2       1 LIG         0.5690
      3 N1         -5.2220    0.6640   -0.2520 N.am      1 LIG        -0.6600
      4 C2         -4.9390   -0.3790   -1.2480 C.3       1 LIG         0.3200
      5 H1         -5.6480   -1.1900   -1.1480 H         1 LIG         0.0800
      6 H2         -4.9380    0.0590   -2.2390 H         1 LIG         0.0800
      7 C3         -3.5460   -0.9010   -0.9380 C.2       1 LIG         0.0060
      8 N2         -2.4700   -0.0730   -1.0550 N.pl3     1 LIG         0.0330
      9 H3         -2.5400    0.9330   -1.3200 H         1 LIG         0.2700
     10 C4         -1.3700   -0.7620   -0.7260 C.ar      1 LIG        -0.1520
     11 C5         -1.8180   -2.0140   -0.4100 C.ar      1 LIG         0.2270
     12 C6         -0.8630   -3.0010   -0.0090 C.ar      1 LIG         0.4610
     13 N3         -1.1720   -4.2560    0.3250 N.pl3     1 LIG        -0.9000
     14 H4         -0.4980   -4.9810    0.6170 H         1 LIG         0.4000
     15 H5         -2.1760   -4.5260    0.2860 H         1 LIG         0.4000
     16 N4          0.4400   -2.6840    0.0500 N.ar      1 LIG        -0.1790
     17 H6          1.0960   -3.4180    0.3370 H         1 LIG         0.4570
     18 C7          0.9230   -1.3880   -0.2710 C.ar      1 LIG         0.3610
     19 C8          0.0080   -0.3900   -0.6680 C.ar      1 LIG         0.0000
     20 C9          0.5030    0.8870   -0.9790 C.ar      1 LIG        -0.1500
     21 H7         -0.1630    1.6590   -1.2750 H         1 LIG         0.1500
     22 C10         1.8620    1.1420   -0.8980 C.ar      1 LIG        -0.1500
     23 H8          2.2320    2.1090   -1.1300 H         1 LIG         0.1500
     24 C11         2.7720    0.1380   -0.5060 C.ar      1 LIG         0.0000
     25 C12         4.1990    0.4250   -0.4440 C.ar      1 LIG         0.0000
     26 C13         4.9220    0.2090    0.7360 C.ar      1 LIG        -0.1500
     27 H9          4.4210   -0.1510    1.5970 H         1 LIG         0.1500
     28 C14         6.2880    0.4710    0.7940 C.ar      1 LIG        -0.1440
     29 C15         7.0650    0.2280    2.0700 C.3       1 LIG        -0.0960
     30 H10         7.8340    0.9950    2.1620 H         1 LIG         0.0800
     31 H11         7.5190   -0.7610    2.0070 H         1 LIG         0.0800
     32 H12         6.3850    0.2840    2.9200 H         1 LIG         0.0800
     33 C16         6.9430    0.9500   -0.3380 C.ar      1 LIG        -0.1500
     34 H13         7.9850    1.1470   -0.3060 H         1 LIG         0.1500
     35 C17         6.2360    1.1740   -1.5150 C.ar      1 LIG        -0.1500
     36 H14         6.7400    1.5430   -2.3720 H         1 LIG         0.1500
     37 C18         4.8720    0.9160   -1.5680 C.ar      1 LIG        -0.1500
     38 H15         4.3400    1.0870   -2.4680 H         1 LIG         0.1500
     39 C19         2.2940   -1.1310   -0.1880 C.ar      1 LIG        -0.1500
     40 H16         2.9750   -1.8880    0.1040 H         1 LIG         0.1500
     41 N5         -3.1830   -2.0890   -0.5460 N.2       1 LIG        -0.5650
     42 C20        -6.0310    0.4340    0.9420 C.3       1 LIG         0.1400
     43 H17        -7.0810    0.4950    0.6810 H         1 LIG         0.0800
     44 H18        -5.7550   -0.4940    1.4270 H         1 LIG         0.0800
     45 C21        -5.6460    1.6350    1.8360 C.3       1 LIG        -0.1600
     46 H19        -6.4700    1.9540    2.4760 H         1 LIG         0.0800
     47 H20        -4.7770    1.3660    2.4390 H         1 LIG         0.0800
     48 C22        -5.2500    2.7160    0.8210 C.3       1 LIG        -0.0990
     49 H21        -4.4610    3.3610    1.2070 H         1 LIG         0.0800
     50 H22        -6.1220    3.2920    0.5140 H         1 LIG         0.0800
@<TRIPOS>BOND
  1   1   2  2   
  2   2   3  am  
  3   2  48  1   
  4   3   4  1   
  5   3  42  1   
  6   4   5  1   
  7   4   6  1   
  8   4   7  1   
  9   7   8  1   
 10   7  41  2   
 11   8   9  1   
 12   8  10  1   
 13  10  11  ar  
 14  10  19  ar  
 15  11  12  ar  
 16  11  41  1   
 17  12  13  1   
 18  12  16  ar  
 19  13  14  1   
 20  13  15  1   
 21  16  17  1   
 22  16  18  ar  
 23  18  19  ar  
 24  18  39  ar  
 25  19  20  ar  
 26  20  21  1   
 27  20  22  ar  
 28  22  23  1   
 29  22  24  ar  
 30  24  25  1   
 31  24  39  ar  
 32  25  26  ar  
 33  25  37  ar  
 34  26  27  1   
 35  26  28  ar  
 36  28  29  1   
 37  28  33  ar  
 38  29  30  1   
 39  29  31  1   
 40  29  32  1   
 41  33  34  1   
 42  33  35  ar  
 43  35  36  1   
 44  35  37  ar  
 45  37  38  1   
 46  39  40  1   
 47  42  43  1   
 48  42  44  1   
 49  42  45  1   
 50  45  46  1   
 51  45  47  1   
 52  45  48  1   
 53  48  49  1   
 54  48  50  1   
@<TRIPOS>SUBSTRUCTURE
  1 ****  19 GROUP 4 **** **** 0

# MOE 2018.01 (io_trps.svl 2018.01)

@<TRIPOS>MOLECULE
CHEMBL3915625
49 51 1 0 0 
SMALL
USER_CHARGES


@<TRIPOS>ATOM
      1 O1         -1.9950   -1.8390    0.4130 O.3       1 LIG        -0.5600
      2 C1         -2.3690   -2.8010    1.3980 C.3       1 LIG         0.1200
      3 H1         -1.5000   -3.3720    1.7370 H         1 LIG         0.0800
      4 H2         -2.8250   -2.3020    2.2560 H         1 LIG         0.0800
      5 C2         -3.3850   -3.7600    0.7610 C.3       1 LIG         0.3430
      6 H3         -3.8740   -4.3520    1.5400 H         1 LIG         0.0800
      7 H4         -2.8320   -4.4390    0.1070 H         1 LIG         0.0800
      8 N1         -4.3730   -2.9990   -0.0430 N.4       1 LIG        -0.8530
      9 H5         -4.9130   -2.3810    0.5450 H         1 LIG         0.4500
     10 H6         -4.9840   -3.6110   -0.5660 H         1 LIG         0.4500
     11 H7         -3.8330   -2.4130   -0.6730 H         1 LIG         0.4500
     12 C3         -0.9890   -0.9420    0.8790 C.3       1 LIG         0.1200
     13 H8         -1.3330   -0.3840    1.7530 H         1 LIG         0.0800
     14 H9         -0.0760   -1.4870    1.1270 H         1 LIG         0.0800
     15 C4         -0.7400    0.0300   -0.2860 C.3       1 LIG         0.0960
     16 H10        -1.6260    0.6310   -0.4050 H         1 LIG         0.0800
     17 H11        -0.5210   -0.4980   -1.2000 H         1 LIG         0.0800
     18 N2          0.4160    0.8500    0.1070 N.pl3     1 LIG         0.0480
     19 C5          0.3410    2.1360    0.6090 C.2       1 LIG         0.0060
     20 C6         -0.9500    2.9230    0.7840 C.3       1 LIG         0.3000
     21 H12        -0.6930    3.9290    1.0900 H         1 LIG         0.0800
     22 H13        -1.5910    2.4130    1.4890 H         1 LIG         0.0800
     23 O2         -1.5890    2.9500   -0.5240 O.3       1 LIG        -0.5600
     24 C7         -2.5110    4.0320   -0.7680 C.3       1 LIG         0.1200
     25 H14        -3.3050    4.0450   -0.0190 H         1 LIG         0.0800
     26 H15        -1.9850    4.9890   -0.7840 H         1 LIG         0.0800
     27 C8         -3.0910    3.7290   -2.1460 C.3       1 LIG        -0.2400
     28 H16        -3.5950    2.7630   -2.1300 H         1 LIG         0.0800
     29 H17        -2.2860    3.7030   -2.8820 H         1 LIG         0.0800
     30 H18        -3.8040    4.5060   -2.4220 H         1 LIG         0.0800
     31 N3          1.5180    2.5860    0.9110 N.2       1 LIG        -0.5650
     32 C9          2.3870    1.5870    0.5850 C.ar      1 LIG         0.2270
     33 C10         3.8100    1.5760    0.7020 C.ar      1 LIG         0.4610
     34 N4          4.5370    2.5860    1.1830 N.pl3     1 LIG        -0.9000
     35 H19         5.5640    2.5970    1.2750 H         1 LIG         0.4000
     36 H20         4.0210    3.4400    1.4840 H         1 LIG         0.4000
     37 N5          4.4980    0.5000    0.3160 N.ar      1 LIG        -0.1790
     38 H21         5.5190    0.5300    0.4070 H         1 LIG         0.4570
     39 C11         3.8680   -0.6500   -0.2020 C.ar      1 LIG         0.3610
     40 C12         2.4570   -0.6900   -0.3320 C.ar      1 LIG         0.0000
     41 C13         1.7300    0.4930    0.0840 C.ar      1 LIG        -0.1520
     42 C14         1.8940   -1.8750   -0.8540 C.ar      1 LIG        -0.1500
     43 H22         0.8520   -1.9750   -0.9800 H         1 LIG         0.1500
     44 C15         2.7000   -2.9420   -1.2200 C.ar      1 LIG        -0.1500
     45 H23         2.2630   -3.8250   -1.6140 H         1 LIG         0.1500
     46 C16         4.0910   -2.8730   -1.0810 C.ar      1 LIG        -0.1500
     47 H24         4.6880   -3.7030   -1.3690 H         1 LIG         0.1500
     48 C17         4.6810   -1.7300   -0.5730 C.ar      1 LIG        -0.1500
     49 H25         5.7350   -1.6810   -0.4700 H         1 LIG         0.1500
@<TRIPOS>BOND
  1   1   2  1   
  2   1  12  1   
  3   2   3  1   
  4   2   4  1   
  5   2   5  1   
  6   5   6  1   
  7   5   7  1   
  8   5   8  1   
  9   8   9  1   
 10   8  10  1   
 11   8  11  1   
 12  12  13  1   
 13  12  14  1   
 14  12  15  1   
 15  15  16  1   
 16  15  17  1   
 17  15  18  1   
 18  18  19  1   
 19  18  41  1   
 20  19  20  1   
 21  19  31  2   
 22  20  21  1   
 23  20  22  1   
 24  20  23  1   
 25  23  24  1   
 26  24  25  1   
 27  24  26  1   
 28  24  27  1   
 29  27  28  1   
 30  27  29  1   
 31  27  30  1   
 32  31  32  1   
 33  32  33  ar  
 34  32  41  ar  
 35  33  34  1   
 36  33  37  ar  
 37  34  35  1   
 38  34  36  1   
 39  37  38  1   
 40  37  39  ar  
 41  39  40  ar  
 42  39  48  ar  
 43  40  41  ar  
 44  40  42  ar  
 45  42  43  1   
 46  42  44  ar  
 47  44  45  1   
 48  44  46  ar  
 49  46  47  1   
 50  46  48  ar  
 51  48  49  1   
@<TRIPOS>SUBSTRUCTURE
  1 ****  18 GROUP 4 **** **** 0

# MOE 2018.01 (io_trps.svl 2018.01)

@<TRIPOS>MOLECULE
CHEMBL4286476
50 53 1 0 0 
SMALL
USER_CHARGES


@<TRIPOS>ATOM
      1 O1         -6.1930   -1.0310    0.6270 O.2       1 LIG        -0.5700
      2 C1         -5.9200   -0.0390   -0.0380 C.2       1 LIG         0.5690
      3 N1         -4.9220    0.8050    0.3070 N.am      1 LIG        -0.6600
      4 C2         -4.6320    2.0610   -0.4190 C.3       1 LIG         0.1400
      5 H1         -5.5320    2.4680   -0.8590 H         1 LIG         0.0800
      6 H2         -4.1710    2.7790    0.2480 H         1 LIG         0.0800
      7 C3         -3.6380    1.7190   -1.5400 C.3       1 LIG        -0.2400
      8 H3         -4.0340    0.9100   -2.1520 H         1 LIG         0.0800
      9 H4         -2.6860    1.4220   -1.1090 H         1 LIG         0.0800
     10 H5         -3.5020    2.6130   -2.1490 H         1 LIG         0.0800
     11 C4         -4.1570    0.5080    1.5480 C.3       1 LIG         0.3200
     12 H6         -3.9540    1.4300    2.0750 H         1 LIG         0.0800
     13 H7         -4.6870   -0.1910    2.1820 H         1 LIG         0.0800
     14 C5         -2.8430   -0.1430    1.1360 C.2       1 LIG         0.0060
     15 N2         -1.6570    0.5330    1.2240 N.pl3     1 LIG         0.0330
     16 H8         -1.5410    1.5040    1.5590 H         1 LIG         0.2700
     17 C6         -0.6800   -0.2770    0.7890 C.ar      1 LIG        -0.1520
     18 C7         -1.3080   -1.4430    0.4530 C.ar      1 LIG         0.2270
     19 C8         -0.5290   -2.5260   -0.0600 C.ar      1 LIG         0.4610
     20 N3         -1.0330   -3.7080   -0.4190 N.pl3     1 LIG        -0.9000
     21 H9         -0.4930   -4.5030   -0.7930 H         1 LIG         0.4000
     22 H10        -2.0630   -3.8350   -0.3140 H         1 LIG         0.4000
     23 N4          0.7960   -2.3820   -0.2070 N.ar      1 LIG        -0.1790
     24 H11         1.3220   -3.1800   -0.5790 H         1 LIG         0.4570
     25 C9          1.4720   -1.1780    0.1280 C.ar      1 LIG         0.3610
     26 C10         0.7310   -0.0930    0.6440 C.ar      1 LIG         0.0000
     27 C11         1.4190    1.0860    0.9720 C.ar      1 LIG        -0.1500
     28 H12         0.8950    1.9180    1.3700 H         1 LIG         0.1500
     29 C12         2.7870    1.1670    0.7780 C.ar      1 LIG        -0.1500
     30 H13         3.2940    2.0610    1.0380 H         1 LIG         0.1500
     31 C13         3.5250    0.0840    0.2500 C.ar      1 LIG         0.0280
     32 C14         4.9680    0.2020    0.0400 C.2       1 LIG        -0.1670
     33 C15         5.6410    1.3500   -0.0910 C.2       1 LIG        -0.2880
     34 H14         5.2050    2.3160   -0.0720 H         1 LIG         0.1500
     35 C16         7.1120    1.1650   -0.3140 C.3       1 LIG        -0.0220
     36 H15         7.3250    1.2500   -1.3720 H         1 LIG         0.0800
     37 H16         7.6900    1.8280    0.3160 H         1 LIG         0.0800
     38 C17         7.2670   -0.3040    0.1530 C.3       1 LIG        -0.1600
     39 H17         7.4750   -0.3050    1.2250 H         1 LIG         0.0800
     40 H18         8.0710   -0.8150   -0.3770 H         1 LIG         0.0800
     41 C18         5.8910   -0.9810   -0.0860 C.3       1 LIG        -0.0220
     42 H19         5.7020   -1.7140    0.6870 H         1 LIG         0.0800
     43 H20         5.8440   -1.3630   -1.0970 H         1 LIG         0.0800
     44 C19         2.8540   -1.0960   -0.0660 C.ar      1 LIG        -0.1500
     45 H21         3.3900   -1.9180   -0.4620 H         1 LIG         0.1500
     46 N5         -2.6530   -1.3460    0.6780 N.2       1 LIG        -0.5650
     47 C20        -6.7980    0.2530   -1.2480 C.3       1 LIG        -0.1790
     48 H22        -7.3370    1.1860   -1.0950 H         1 LIG         0.0800
     49 H23        -7.5210   -0.5540   -1.3620 H         1 LIG         0.0800
     50 H24        -6.1940    0.3070   -2.1490 H         1 LIG         0.0800
@<TRIPOS>BOND
  1   1   2  2   
  2   2   3  am  
  3   2  47  1   
  4   3   4  1   
  5   3  11  1   
  6   4   5  1   
  7   4   6  1   
  8   4   7  1   
  9   7   8  1   
 10   7   9  1   
 11   7  10  1   
 12  11  12  1   
 13  11  13  1   
 14  11  14  1   
 15  14  15  1   
 16  14  46  2   
 17  15  16  1   
 18  15  17  1   
 19  17  18  ar  
 20  17  26  ar  
 21  18  19  ar  
 22  18  46  1   
 23  19  20  1   
 24  19  23  ar  
 25  20  21  1   
 26  20  22  1   
 27  23  24  1   
 28  23  25  ar  
 29  25  26  ar  
 30  25  44  ar  
 31  26  27  ar  
 32  27  28  1   
 33  27  29  ar  
 34  29  30  1   
 35  29  31  ar  
 36  31  32  1   
 37  31  44  ar  
 38  32  33  2   
 39  32  41  1   
 40  33  34  1   
 41  33  35  1   
 42  35  36  1   
 43  35  37  1   
 44  35  38  1   
 45  38  39  1   
 46  38  40  1   
 47  38  41  1   
 48  41  42  1   
 49  41  43  1   
 50  44  45  1   
 51  47  48  1   
 52  47  49  1   
 53  47  50  1   
@<TRIPOS>SUBSTRUCTURE
  1 ****  17 GROUP 4 **** **** 0

# MOE 2018.01 (io_trps.svl 2018.01)

@<TRIPOS>MOLECULE
CHEMBL4278564
49 52 1 0 0 
SMALL
USER_CHARGES


@<TRIPOS>ATOM
      1 O1          4.2330   -2.5920   -1.4990 O.2       1 LIG        -0.5700
      2 C1          4.3850   -1.4070   -1.2360 C.2       1 LIG         0.5690
      3 N1          4.5490   -0.9870    0.0360 N.am      1 LIG        -0.6600
      4 C2          4.9040   -1.9680    1.0870 C.3       1 LIG         0.1400
      5 H1          5.2980   -2.8760    0.6450 H         1 LIG         0.0800
      6 H2          5.6090   -1.5330    1.7840 H         1 LIG         0.0800
      7 C3          3.6040   -2.3060    1.8280 C.3       1 LIG        -0.2400
      8 H3          2.8920   -2.7190    1.1110 H         1 LIG         0.0800
      9 H4          3.2190   -1.4120    2.3160 H         1 LIG         0.0800
     10 H5          3.8430   -3.0600    2.5780 H         1 LIG         0.0800
     11 C4          4.5290    0.4480    0.4180 C.3       1 LIG         0.3200
     12 H6          4.8370    0.5610    1.4490 H         1 LIG         0.0800
     13 H7          5.1540    1.0310   -0.2460 H         1 LIG         0.0800
     14 C5          3.0900    0.9440    0.3090 C.2       1 LIG         0.0060
     15 N2          2.0280    0.0830    0.2890 N.pl3     1 LIG         0.0330
     16 H8          2.1180   -0.9500    0.3270 H         1 LIG         0.2700
     17 C6          0.9020    0.8010    0.1870 C.ar      1 LIG        -0.1520
     18 C7          1.3160    2.1030    0.1500 C.ar      1 LIG         0.2270
     19 C8          0.3290    3.1350    0.0460 C.ar      1 LIG         0.4610
     20 N3          0.6040    4.4400    0.0090 N.pl3     1 LIG        -0.9000
     21 H9         -0.0940    5.1970   -0.0630 H         1 LIG         0.4000
     22 H10         1.6050    4.7210    0.0600 H         1 LIG         0.4000
     23 N4         -0.9710    2.8100   -0.0200 N.ar      1 LIG        -0.1790
     24 H11        -1.6500    3.5750   -0.0920 H         1 LIG         0.4570
     25 C9         -1.4210    1.4640    0.0090 C.ar      1 LIG         0.3610
     26 C10        -0.4740    0.4220    0.1180 C.ar      1 LIG         0.0000
     27 C11        -0.9400   -0.9030    0.1510 C.ar      1 LIG        -0.1500
     28 H12        -0.2540   -1.7090    0.2270 H         1 LIG         0.1500
     29 C12        -2.2980   -1.1620    0.0800 C.ar      1 LIG        -0.1500
     30 H13        -2.6460   -2.1650    0.1020 H         1 LIG         0.1500
     31 C13        -3.2390   -0.1160   -0.0290 C.ar      1 LIG         0.0000
     32 C14        -4.6630   -0.4180   -0.0930 C.ar      1 LIG         0.0000
     33 C15        -5.2830   -1.1310    0.9390 C.ar      1 LIG        -0.1500
     34 H14        -4.7140   -1.4540    1.7720 H         1 LIG         0.1500
     35 C16        -6.6420   -1.4170    0.8820 C.ar      1 LIG        -0.1500
     36 H15        -7.1040   -1.9570    1.6690 H         1 LIG         0.1500
     37 C17        -7.3990   -0.9950   -0.2060 C.ar      1 LIG        -0.1500
     38 H16        -8.4350   -1.2150   -0.2490 H         1 LIG         0.1500
     39 C18        -6.7930   -0.2880   -1.2400 C.ar      1 LIG        -0.1500
     40 H17        -7.3710    0.0280   -2.0720 H         1 LIG         0.1500
     41 C19        -5.4340   -0.0010   -1.1850 C.ar      1 LIG        -0.1500
     42 H18        -4.9800    0.5300   -1.9820 H         1 LIG         0.1500
     43 C20        -2.7920    1.2020   -0.0670 C.ar      1 LIG        -0.1500
     44 H19        -3.4950    1.9910   -0.1460 H         1 LIG         0.1500
     45 N5          2.6860    2.1770    0.2240 N.2       1 LIG        -0.5650
     46 C21         4.3440   -0.4040   -2.3820 C.3       1 LIG        -0.1790
     47 H20         5.2580    0.1870   -2.3850 H         1 LIG         0.0800
     48 H21         3.4780    0.2460   -2.2870 H         1 LIG         0.0800
     49 H22         4.2760   -0.9470   -3.3240 H         1 LIG         0.0800
@<TRIPOS>BOND
  1   1   2  2   
  2   2   3  am  
  3   2  46  1   
  4   3   4  1   
  5   3  11  1   
  6   4   5  1   
  7   4   6  1   
  8   4   7  1   
  9   7   8  1   
 10   7   9  1   
 11   7  10  1   
 12  11  12  1   
 13  11  13  1   
 14  11  14  1   
 15  14  15  1   
 16  14  45  2   
 17  15  16  1   
 18  15  17  1   
 19  17  18  ar  
 20  17  26  ar  
 21  18  19  ar  
 22  18  45  1   
 23  19  20  1   
 24  19  23  ar  
 25  20  21  1   
 26  20  22  1   
 27  23  24  1   
 28  23  25  ar  
 29  25  26  ar  
 30  25  43  ar  
 31  26  27  ar  
 32  27  28  1   
 33  27  29  ar  
 34  29  30  1   
 35  29  31  ar  
 36  31  32  1   
 37  31  43  ar  
 38  32  33  ar  
 39  32  41  ar  
 40  33  34  1   
 41  33  35  ar  
 42  35  36  1   
 43  35  37  ar  
 44  37  38  1   
 45  37  39  ar  
 46  39  40  1   
 47  39  41  ar  
 48  41  42  1   
 49  43  44  1   
 50  46  47  1   
 51  46  48  1   
 52  46  49  1   
@<TRIPOS>SUBSTRUCTURE
  1 ****  26 GROUP 4 **** **** 0

# MOE 2018.01 (io_trps.svl 2018.01)

@<TRIPOS>MOLECULE
CHEMBL4293700
47 51 1 0 0 
SMALL
USER_CHARGES


@<TRIPOS>ATOM
      1 O1         -3.4800   -2.2010   -1.3130 O.2       1 LIG        -0.5700
      2 C1         -4.3160   -1.8440   -0.4880 C.2       1 LIG         0.5690
      3 N1         -4.7570   -0.6040   -0.3260 N.am      1 LIG        -0.6600
      4 C2         -4.4170    0.4940   -1.2420 C.3       1 LIG         0.3200
      5 H1         -4.3820    0.1210   -2.2570 H         1 LIG         0.0800
      6 H2         -5.1180    1.3100   -1.1190 H         1 LIG         0.0800
      7 C3         -3.0310    0.9740   -0.8440 C.2       1 LIG         0.0060
      8 N2         -1.9610    0.1370   -0.9600 N.pl3     1 LIG         0.0330
      9 H3         -2.0330   -0.8520   -1.2820 H         1 LIG         0.2700
     10 C4         -0.8680    0.7920   -0.5500 C.ar      1 LIG        -0.1520
     11 C5         -1.3140    2.0330   -0.1890 C.ar      1 LIG         0.2270
     12 C6         -0.3650    2.9860    0.3000 C.ar      1 LIG         0.4610
     13 N3         -0.6740    4.2260    0.6870 N.pl3     1 LIG        -0.9000
     14 H4         -0.0060    4.9260    1.0440 H         1 LIG         0.4000
     15 H5         -1.6740    4.5100    0.6230 H         1 LIG         0.4000
     16 N4          0.9310    2.6510    0.3910 N.ar      1 LIG        -0.1790
     17 H6          1.5810    3.3600    0.7480 H         1 LIG         0.4570
     18 C7          1.4140    1.3700    0.0170 C.ar      1 LIG         0.3610
     19 C8          0.5040    0.4020   -0.4580 C.ar      1 LIG         0.0000
     20 C9          0.9980   -0.8650   -0.8090 C.ar      1 LIG        -0.1500
     21 H7          0.3370   -1.6160   -1.1650 H         1 LIG         0.1500
     22 C10         2.3510   -1.1380   -0.6940 C.ar      1 LIG        -0.1500
     23 H8          2.7220   -2.0950   -0.9650 H         1 LIG         0.1500
     24 C11         3.2570   -0.1610   -0.2280 C.ar      1 LIG         0.0000
     25 C12         4.6770   -0.4690   -0.1220 C.ar      1 LIG         0.0000
     26 C13         5.1180   -1.5380    0.6670 C.ar      1 LIG        -0.1500
     27 H9          4.4130   -2.1320    1.1900 H         1 LIG         0.1500
     28 C14         6.4740   -1.8250    0.7750 C.ar      1 LIG        -0.1500
     29 H10         6.7990   -2.6350    1.3760 H         1 LIG         0.1500
     30 C15         7.4070   -1.0490    0.0940 C.ar      1 LIG        -0.1500
     31 H11         8.4410   -1.2690    0.1760 H         1 LIG         0.1500
     32 C16         6.9820    0.0130   -0.6970 C.ar      1 LIG        -0.1500
     33 H12         7.6940    0.6000   -1.2200 H         1 LIG         0.1500
     34 C17         5.6260    0.3010   -0.8060 C.ar      1 LIG        -0.1500
     35 H13         5.3110    1.1060   -1.4190 H         1 LIG         0.1500
     36 C18         2.7800    1.0970    0.1290 C.ar      1 LIG        -0.1500
     37 H14         3.4560    1.8300    0.4870 H         1 LIG         0.1500
     38 N5         -2.6710    2.1340   -0.3760 N.2       1 LIG        -0.5650
     39 C19        -5.6130   -0.4380    0.8460 C.3       1 LIG         0.1400
     40 H15        -5.3410    0.4500    1.4050 H         1 LIG         0.0800
     41 H16        -6.6510   -0.4590    0.5370 H         1 LIG         0.0800
     42 C20        -5.2880   -1.7040    1.6710 C.3       1 LIG        -0.1600
     43 H17        -4.4380   -1.4960    2.3240 H         1 LIG         0.0800
     44 H18        -6.1430   -2.0470    2.2540 H         1 LIG         0.0800
     45 C21        -4.8730   -2.7220    0.6000 C.3       1 LIG        -0.0990
     46 H19        -5.7430   -3.2530    0.2160 H         1 LIG         0.0800
     47 H20        -4.1170   -3.4130    0.9720 H         1 LIG         0.0800
@<TRIPOS>BOND
  1   1   2  2   
  2   2   3  am  
  3   2  45  1   
  4   3   4  1   
  5   3  39  1   
  6   4   5  1   
  7   4   6  1   
  8   4   7  1   
  9   7   8  1   
 10   7  38  2   
 11   8   9  1   
 12   8  10  1   
 13  10  11  ar  
 14  10  19  ar  
 15  11  12  ar  
 16  11  38  1   
 17  12  13  1   
 18  12  16  ar  
 19  13  14  1   
 20  13  15  1   
 21  16  17  1   
 22  16  18  ar  
 23  18  19  ar  
 24  18  36  ar  
 25  19  20  ar  
 26  20  21  1   
 27  20  22  ar  
 28  22  23  1   
 29  22  24  ar  
 30  24  25  1   
 31  24  36  ar  
 32  25  26  ar  
 33  25  34  ar  
 34  26  27  1   
 35  26  28  ar  
 36  28  29  1   
 37  28  30  ar  
 38  30  31  1   
 39  30  32  ar  
 40  32  33  1   
 41  32  34  ar  
 42  34  35  1   
 43  36  37  1   
 44  39  40  1   
 45  39  41  1   
 46  39  42  1   
 47  42  43  1   
 48  42  44  1   
 49  42  45  1   
 50  45  46  1   
 51  45  47  1   
@<TRIPOS>SUBSTRUCTURE
  1 ****  19 GROUP 4 **** **** 0

# MOE 2018.01 (io_trps.svl 2018.01)

@<TRIPOS>MOLECULE
CHEMBL4284645
50 54 1 0 0 
SMALL
USER_CHARGES


@<TRIPOS>ATOM
      1 O1         -4.7800   -2.0240   -1.0420 O.2       1 LIG        -0.5700
      2 C1         -4.8330   -1.2240   -0.1170 C.2       1 LIG         0.5690
      3 N1         -4.2930   -0.0130   -0.1060 N.am      1 LIG        -0.6600
      4 C2         -3.7180    0.6050   -1.3070 C.3       1 LIG         0.3200
      5 H1         -3.7530   -0.0730   -2.1490 H         1 LIG         0.0800
      6 H2         -4.2450    1.5280   -1.5130 H         1 LIG         0.0800
      7 C3         -2.2680    0.9440   -0.9760 C.2       1 LIG         0.0060
      8 N2         -1.2430    0.0150   -0.9540 N.pl3     1 LIG         0.0480
      9 C4         -1.4170   -1.4280   -1.2010 C.3       1 LIG         0.0960
     10 H3         -2.3770   -1.6200   -1.6550 H         1 LIG         0.0800
     11 H4         -0.6260   -1.7920   -1.8370 H         1 LIG         0.0800
     12 C5         -1.3870   -2.1280    0.1730 C.3       1 LIG        -0.2400
     13 H5         -2.2020   -1.7390    0.7830 H         1 LIG         0.0800
     14 H6         -0.4360   -1.9490    0.6710 H         1 LIG         0.0800
     15 H7         -1.5320   -3.1960    0.0080 H         1 LIG         0.0800
     16 C6         -0.0940    0.6810   -0.6460 C.ar      1 LIG        -0.1520
     17 C7         -0.4920    1.9820   -0.4720 C.ar      1 LIG         0.2270
     18 C8          0.4660    2.9800   -0.1210 C.ar      1 LIG         0.4610
     19 N3          0.1790    4.2700    0.0720 N.pl3     1 LIG        -0.9000
     20 H8          0.8590    5.0050    0.3220 H         1 LIG         0.4000
     21 H9         -0.8140    4.5590   -0.0500 H         1 LIG         0.4000
     22 N4          1.7480    2.6440    0.0350 N.ar      1 LIG        -0.1790
     23 H10         2.4080    3.3860    0.2920 H         1 LIG         0.4570
     24 C9          2.2070    1.3210   -0.1470 C.ar      1 LIG         0.3610
     25 C10         1.2930    0.2980   -0.4980 C.ar      1 LIG         0.0000
     26 C11         1.8270   -0.9950   -0.6770 C.ar      1 LIG        -0.1500
     27 H11         1.2060   -1.8060   -0.9410 H         1 LIG         0.1500
     28 C12         3.1790   -1.2350   -0.5050 C.ar      1 LIG        -0.1500
     29 H12         3.5490   -2.2210   -0.6360 H         1 LIG         0.1500
     30 C13         4.0790   -0.2070   -0.1530 C.ar      1 LIG         0.0530
     31 C14         5.4990   -0.4880    0.0210 C.2       1 LIG        -0.0130
     32 S1          6.5250    0.5500    0.9680 S.3       1 LIG        -0.0800
     33 C15         7.8960   -0.4490    0.6660 C.2       1 LIG        -0.1100
     34 H13         8.8460   -0.2090    1.0710 H         1 LIG         0.1500
     35 C16         7.5780   -1.5190   -0.1220 C.2       1 LIG        -0.1500
     36 H14         8.2830   -2.2510   -0.4230 H         1 LIG         0.1500
     37 C17         6.2250   -1.5420   -0.4880 C.2       1 LIG        -0.1500
     38 H15         5.8080   -2.2980   -1.1030 H         1 LIG         0.1500
     39 C18         3.5720    1.0790    0.0240 C.ar      1 LIG        -0.1500
     40 H16         4.2260    1.8700    0.2820 H         1 LIG         0.1500
     41 N5         -1.8330    2.1290   -0.6800 N.2       1 LIG        -0.5650
     42 C19        -4.5180    0.7100    1.1440 C.3       1 LIG         0.1400
     43 H17        -3.6220    1.2270    1.4660 H         1 LIG         0.0800
     44 H18        -5.3770    1.3600    1.0300 H         1 LIG         0.0800
     45 C20        -4.8570   -0.4340    2.1250 C.3       1 LIG        -0.1600
     46 H19        -3.9330   -0.8160    2.5620 H         1 LIG         0.0800
     47 H20        -5.5460   -0.1140    2.9080 H         1 LIG         0.0800
     48 C21        -5.4750   -1.5040    1.2150 C.3       1 LIG        -0.0990
     49 H21        -6.5510   -1.3580    1.1260 H         1 LIG         0.0800
     50 H22        -5.2370   -2.5100    1.5570 H         1 LIG         0.0800
@<TRIPOS>BOND
  1   1   2  2   
  2   2   3  am  
  3   2  48  1   
  4   3   4  1   
  5   3  42  1   
  6   4   5  1   
  7   4   6  1   
  8   4   7  1   
  9   7   8  1   
 10   7  41  2   
 11   8   9  1   
 12   8  16  1   
 13   9  10  1   
 14   9  11  1   
 15   9  12  1   
 16  12  13  1   
 17  12  14  1   
 18  12  15  1   
 19  16  17  ar  
 20  16  25  ar  
 21  17  18  ar  
 22  17  41  1   
 23  18  19  1   
 24  18  22  ar  
 25  19  20  1   
 26  19  21  1   
 27  22  23  1   
 28  22  24  ar  
 29  24  25  ar  
 30  24  39  ar  
 31  25  26  ar  
 32  26  27  1   
 33  26  28  ar  
 34  28  29  1   
 35  28  30  ar  
 36  30  31  1   
 37  30  39  ar  
 38  31  32  1   
 39  31  37  2   
 40  32  33  1   
 41  33  34  1   
 42  33  35  2   
 43  35  36  1   
 44  35  37  1   
 45  37  38  1   
 46  39  40  1   
 47  42  43  1   
 48  42  44  1   
 49  42  45  1   
 50  45  46  1   
 51  45  47  1   
 52  45  48  1   
 53  48  49  1   
 54  48  50  1   
@<TRIPOS>SUBSTRUCTURE
  1 ****  16 GROUP 4 **** **** 0

# MOE 2018.01 (io_trps.svl 2018.01)

@<TRIPOS>MOLECULE
CHEMBL4283103
47 51 1 0 0 
SMALL
USER_CHARGES


@<TRIPOS>ATOM
      1 F1         -4.8120    0.4960    1.9830 F         1 LIG        -0.1900
      2 C1         -5.4200   -0.1360    0.9370 C.ar      1 LIG         0.1900
      3 C2         -4.6720   -0.4780   -0.1980 C.ar      1 LIG         0.0000
      4 C3         -3.2470   -0.1760   -0.3100 C.ar      1 LIG         0.0000
      5 C4         -2.7680    1.1080   -0.0580 C.ar      1 LIG        -0.1500
      6 H1         -3.4450    1.8770    0.2140 H         1 LIG         0.1500
      7 C5         -1.4000    1.3680   -0.1640 C.ar      1 LIG         0.3610
      8 N1         -0.9200    2.6730    0.1160 N.ar      1 LIG        -0.1790
      9 H2         -1.5760    3.4070    0.4030 H         1 LIG         0.4570
     10 C6          0.3790    2.9960    0.0280 C.ar      1 LIG         0.4610
     11 N2          0.6850    4.2610    0.3210 N.pl3     1 LIG        -0.9000
     12 H3          0.0110    4.9890    0.6060 H         1 LIG         0.4000
     13 H4          1.6870    4.5370    0.2600 H         1 LIG         0.4000
     14 C7          1.3350    2.0030   -0.3590 C.ar      1 LIG         0.2270
     15 N3          2.6970    2.0830   -0.5140 N.2       1 LIG        -0.5650
     16 C8          3.0630    0.8870   -0.8730 C.2       1 LIG         0.0060
     17 C9          4.4570    0.3670   -1.1820 C.3       1 LIG         0.3200
     18 H5          5.1590    1.1880   -1.1190 H         1 LIG         0.0800
     19 H6          4.4490   -0.1050   -2.1570 H         1 LIG         0.0800
     20 N4          4.7620   -0.6370   -0.1530 N.am      1 LIG        -0.6600
     21 C10         4.3130   -1.8840   -0.2000 C.2       1 LIG         0.5690
     22 O1          3.5020   -2.3190   -1.0130 O.2       1 LIG        -0.5700
     23 C11         4.8200   -2.6480    0.9930 C.3       1 LIG        -0.0990
     24 H7          4.0420   -3.2880    1.4080 H         1 LIG         0.0800
     25 H8          5.6970   -3.2240    0.6990 H         1 LIG         0.0800
     26 C12         5.2110   -1.5270    1.9670 C.3       1 LIG        -0.1600
     27 H9          6.0440   -1.8130    2.6110 H         1 LIG         0.0800
     28 H10         4.3430   -1.2460    2.5660 H         1 LIG         0.0800
     29 C13         5.5770   -0.3550    1.0270 C.3       1 LIG         0.1400
     30 H11         6.6250   -0.4130    0.7600 H         1 LIG         0.0800
     31 H12         5.2920    0.5870    1.4810 H         1 LIG         0.0800
     32 N5          1.9920    0.0470   -0.9500 N.pl3     1 LIG         0.0330
     33 H13         2.0660   -0.9670   -1.1820 H         1 LIG         0.2700
     34 C14         0.8910    0.7390   -0.6290 C.ar      1 LIG        -0.1520
     35 C15        -0.4850    0.3620   -0.5400 C.ar      1 LIG         0.0000
     36 C16        -0.9780   -0.9280   -0.7960 C.ar      1 LIG        -0.1500
     37 H14        -0.3130   -1.7070   -1.0750 H         1 LIG         0.1500
     38 C17        -2.3340   -1.1880   -0.6800 C.ar      1 LIG        -0.1500
     39 H15        -2.6970   -2.1680   -0.8660 H         1 LIG         0.1500
     40 C18        -5.3470   -1.1300   -1.2400 C.ar      1 LIG        -0.1500
     41 H16        -4.8200   -1.4040   -2.1190 H         1 LIG         0.1500
     42 C19        -6.7060   -1.4170   -1.1370 C.ar      1 LIG        -0.1500
     43 H17        -7.2030   -1.9100   -1.9350 H         1 LIG         0.1500
     44 C20        -7.4220   -1.0620    0.0070 C.ar      1 LIG        -0.1500
     45 H18        -8.4570   -1.2860    0.0760 H         1 LIG         0.1500
     46 C21        -6.7750   -0.4160    1.0550 C.ar      1 LIG        -0.1500
     47 H19        -7.3030   -0.1420    1.9320 H         1 LIG         0.1500
@<TRIPOS>BOND
  1   1   2  1   
  2   2   3  ar  
  3   2  46  ar  
  4   3   4  1   
  5   3  40  ar  
  6   4   5  ar  
  7   4  38  ar  
  8   5   6  1   
  9   5   7  ar  
 10   7   8  ar  
 11   7  35  ar  
 12   8   9  1   
 13   8  10  ar  
 14  10  11  1   
 15  10  14  ar  
 16  11  12  1   
 17  11  13  1   
 18  14  15  1   
 19  14  34  ar  
 20  15  16  2   
 21  16  17  1   
 22  16  32  1   
 23  17  18  1   
 24  17  19  1   
 25  17  20  1   
 26  20  21  am  
 27  20  29  1   
 28  21  22  2   
 29  21  23  1   
 30  23  24  1   
 31  23  25  1   
 32  23  26  1   
 33  26  27  1   
 34  26  28  1   
 35  26  29  1   
 36  29  30  1   
 37  29  31  1   
 38  32  33  1   
 39  32  34  1   
 40  34  35  ar  
 41  35  36  ar  
 42  36  37  1   
 43  36  38  ar  
 44  38  39  1   
 45  40  41  1   
 46  40  42  ar  
 47  42  43  1   
 48  42  44  ar  
 49  44  45  1   
 50  44  46  ar  
 51  46  47  1   
@<TRIPOS>SUBSTRUCTURE
  1 ****  35 GROUP 4 **** **** 0

# MOE 2018.01 (io_trps.svl 2018.01)

@<TRIPOS>MOLECULE
CHEMBL4166427
56 59 1 0 0 
SMALL
USER_CHARGES


@<TRIPOS>ATOM
      1 O1          5.2420    3.5140   -1.2010 O.2       1 LIG        -0.5700
      2 C1          5.1930    2.5010   -0.5250 C.2       1 LIG         0.6340
      3 O2          6.3380    2.0610    0.0550 O.3       1 LIG        -0.4300
      4 C2          7.5990    2.7730   -0.1150 C.3       1 LIG         0.0400
      5 H1          8.3710    2.2370    0.4370 H         1 LIG         0.0800
      6 H2          7.4810    3.7850    0.2770 H         1 LIG         0.0800
      7 H3          7.8400    2.8030   -1.1790 H         1 LIG         0.0800
      8 C3          3.9720    1.7260   -0.2970 C.ar      1 LIG         0.0860
      9 C4          3.9880    0.5620    0.4750 C.ar      1 LIG        -0.1500
     10 H4          4.8950    0.2310    0.9140 H         1 LIG         0.1500
     11 C5          2.8040   -0.1550    0.6710 C.ar      1 LIG         0.3610
     12 N1          2.8430   -1.2900    1.5150 N.ar      1 LIG        -0.1790
     13 H5          3.7230   -1.5770    1.9570 H         1 LIG         0.4570
     14 C6          1.7540   -2.0140    1.7860 C.ar      1 LIG         0.4610
     15 N2          1.9290   -3.0350    2.6270 N.pl3     1 LIG        -0.9000
     16 H6          2.8180   -3.2960    3.0810 H         1 LIG         0.4000
     17 H7          1.0920   -3.6150    2.8480 H         1 LIG         0.4000
     18 C7          0.5080   -1.6770    1.1750 C.ar      1 LIG         0.2270
     19 N3         -0.6990   -2.2950    1.3040 N.2       1 LIG        -0.5650
     20 C8         -1.5000   -1.6580    0.5100 C.2       1 LIG         0.0060
     21 C9         -2.9760   -1.9750    0.3160 C.3       1 LIG         0.0200
     22 H8         -3.3670   -2.4300    1.2270 H         1 LIG         0.0800
     23 H9         -3.5410   -1.0630    0.1220 H         1 LIG         0.0800
     24 C10        -3.1280   -2.9580   -0.8620 C.3       1 LIG        -0.1600
     25 H10        -4.1920   -3.0470   -1.0880 H         1 LIG         0.0800
     26 H11        -2.6290   -2.5660   -1.7480 H         1 LIG         0.0800
     27 C11        -2.5800   -4.3610   -0.5550 C.3       1 LIG        -0.1600
     28 H12        -1.5050   -4.3100   -0.3750 H         1 LIG         0.0800
     29 H13        -3.0620   -4.7550    0.3420 H         1 LIG         0.0800
     30 C12        -2.8420   -5.3130   -1.7260 C.3       1 LIG        -0.2400
     31 H14        -2.3510   -4.9440   -2.6270 H         1 LIG         0.0800
     32 H15        -3.9140   -5.3980   -1.9080 H         1 LIG         0.0800
     33 H16        -2.4470   -6.3020   -1.4880 H         1 LIG         0.0800
     34 N4         -0.8420   -0.6390   -0.1490 N.pl3     1 LIG         0.0480
     35 C13        -1.4390    0.1890   -1.2110 C.3       1 LIG         0.2390
     36 H17        -0.6770    0.5400   -1.8860 H         1 LIG         0.0800
     37 H18        -2.1610   -0.4060   -1.7480 H         1 LIG         0.0800
     38 C14        -2.1700    1.3700   -0.5890 C.ar      1 LIG        -0.1440
     39 C15        -1.7120    2.0350    0.5530 C.ar      1 LIG        -0.1500
     40 H19        -0.8340    1.7220    1.0520 H         1 LIG         0.1500
     41 C16        -2.4060    3.1280    1.0600 C.ar      1 LIG        -0.1500
     42 H20        -2.0540    3.6280    1.9280 H         1 LIG         0.1500
     43 C17        -3.5770    3.5910    0.4420 C.ar      1 LIG        -0.1790
     44 C18        -4.3080    4.7540    0.9750 C.2       1 LIG         0.9790
     45 O3         -5.3760    5.1280    0.4130 O.co2     1 LIG        -0.9000
     46 O4         -3.8550    5.3630    1.9840 O.co2     1 LIG        -0.9000
     47 C19        -4.0290    2.9160   -0.7000 C.ar      1 LIG        -0.1500
     48 H21        -4.9150    3.2540   -1.1790 H         1 LIG         0.1500
     49 C20        -3.3350    1.8250   -1.2080 C.ar      1 LIG        -0.1500
     50 H22        -3.7040    1.3440   -2.0770 H         1 LIG         0.1500
     51 C21         0.4380   -0.6150    0.3120 C.ar      1 LIG        -0.1520
     52 C22         1.5800    0.2370    0.0750 C.ar      1 LIG         0.0000
     53 C23         1.5760    1.4390   -0.6610 C.ar      1 LIG        -0.1500
     54 H23         0.6790    1.8280   -1.0660 H         1 LIG         0.1500
     55 C24         2.7450    2.1560   -0.8480 C.ar      1 LIG        -0.1500
     56 H24         2.7220    3.0580   -1.4110 H         1 LIG         0.1500
@<TRIPOS>BOND
  1   1   2  2   
  2   2   3  1   
  3   2   8  1   
  4   3   4  1   
  5   4   5  1   
  6   4   6  1   
  7   4   7  1   
  8   8   9  ar  
  9   8  55  ar  
 10   9  10  1   
 11   9  11  ar  
 12  11  12  ar  
 13  11  52  ar  
 14  12  13  1   
 15  12  14  ar  
 16  14  15  1   
 17  14  18  ar  
 18  15  16  1   
 19  15  17  1   
 20  18  19  1   
 21  18  51  ar  
 22  19  20  2   
 23  20  21  1   
 24  20  34  1   
 25  21  22  1   
 26  21  23  1   
 27  21  24  1   
 28  24  25  1   
 29  24  26  1   
 30  24  27  1   
 31  27  28  1   
 32  27  29  1   
 33  27  30  1   
 34  30  31  1   
 35  30  32  1   
 36  30  33  1   
 37  34  35  1   
 38  34  51  1   
 39  35  36  1   
 40  35  37  1   
 41  35  38  1   
 42  38  39  ar  
 43  38  49  ar  
 44  39  40  1   
 45  39  41  ar  
 46  41  42  1   
 47  41  43  ar  
 48  43  44  1   
 49  43  47  ar  
 50  44  45  ar  
 51  44  46  ar  
 52  47  48  1   
 53  47  49  ar  
 54  49  50  1   
 55  51  52  ar  
 56  52  53  ar  
 57  53  54  1   
 58  53  55  ar  
 59  55  56  1   
@<TRIPOS>SUBSTRUCTURE
  1 ****  51 GROUP 4 **** **** 0

# MOE 2018.01 (io_trps.svl 2018.01)

@<TRIPOS>MOLECULE
CHEMBL2216759
42 44 1 0 0 
SMALL
USER_CHARGES


@<TRIPOS>ATOM
      1 O1          5.2990   -0.9230   -0.2600 O.2       1 LIG        -0.5700
      2 C1          4.5320   -0.0290    0.0570 C.2       1 LIG         0.6340
      3 O2          5.0430    1.2010    0.3030 O.3       1 LIG        -0.4300
      4 C2          6.4690    1.4780    0.1940 C.3       1 LIG         0.0400
      5 H1          6.6330    2.5250    0.4490 H         1 LIG         0.0800
      6 H2          7.0020    0.8270    0.8890 H         1 LIG         0.0800
      7 H3          6.7820    1.2810   -0.8320 H         1 LIG         0.0800
      8 C3          3.0870   -0.2250    0.1810 C.ar      1 LIG         0.0860
      9 C4          2.5340   -1.4820   -0.0620 C.ar      1 LIG        -0.1500
     10 H4          3.1680   -2.2890   -0.3330 H         1 LIG         0.1500
     11 C5          1.1550   -1.6700    0.0540 C.ar      1 LIG         0.3610
     12 N1          0.6440   -2.9640   -0.1900 N.ar      1 LIG        -0.1790
     13 H5          1.2780   -3.7300   -0.4450 H         1 LIG         0.4570
     14 C6         -0.6570   -3.2440   -0.0970 C.ar      1 LIG         0.4610
     15 N2         -0.9990   -4.5090   -0.3510 N.pl3     1 LIG        -0.9000
     16 H6         -2.0100   -4.7520   -0.2830 H         1 LIG         0.4000
     17 H7         -0.3460   -5.2680   -0.6030 H         1 LIG         0.4000
     18 C7         -1.5820   -2.2140    0.2540 C.ar      1 LIG         0.2270
     19 N3         -2.9350   -2.3060    0.4060 N.2       1 LIG        -0.5650
     20 C8         -3.3120   -1.1110    0.7210 C.2       1 LIG         0.0360
     21 H8         -4.3020   -0.7830    0.9260 H         1 LIG         0.1500
     22 N4         -2.2640   -0.2330    0.7710 N.pl3     1 LIG         0.0480
     23 C9         -2.4770    1.1870    1.0990 C.3       1 LIG         0.0960
     24 H9         -3.3230    1.2610    1.7670 H         1 LIG         0.0800
     25 H10        -1.6080    1.6080    1.5720 H         1 LIG         0.0800
     26 C10        -2.8240    1.9990   -0.1820 C.3       1 LIG         0.2800
     27 O3         -2.9070    3.3450    0.1890 O.3       1 LIG        -0.6800
     28 H11        -3.1930    3.8580   -0.5720 H         1 LIG         0.4000
     29 C11        -1.7520    1.9340   -1.2750 C.3       1 LIG        -0.2400
     30 H12        -1.6190    0.9110   -1.6240 H         1 LIG         0.0800
     31 H13        -0.8060    2.3220   -0.8990 H         1 LIG         0.0800
     32 H14        -2.0530    2.5450   -2.1260 H         1 LIG         0.0800
     33 C12        -4.1940    1.6300   -0.7600 C.3       1 LIG        -0.2400
     34 H15        -4.9520    1.6630    0.0240 H         1 LIG         0.0800
     35 H16        -4.4740    2.3340   -1.5430 H         1 LIG         0.0800
     36 H17        -4.1690    0.6320   -1.1980 H         1 LIG         0.0800
     37 C13        -1.1320   -0.9370    0.4870 C.ar      1 LIG        -0.1520
     38 C14         0.2770   -0.6150    0.4090 C.ar      1 LIG         0.0000
     39 C15         0.8590    0.6460    0.6590 C.ar      1 LIG        -0.1500
     40 H18         0.2650    1.4720    0.9380 H         1 LIG         0.1500
     41 C16         2.2260    0.8330    0.5460 C.ar      1 LIG        -0.1500
     42 H19         2.6380    1.7940    0.7390 H         1 LIG         0.1500
@<TRIPOS>BOND
  1   1   2  2   
  2   2   3  1   
  3   2   8  1   
  4   3   4  1   
  5   4   5  1   
  6   4   6  1   
  7   4   7  1   
  8   8   9  ar  
  9   8  41  ar  
 10   9  10  1   
 11   9  11  ar  
 12  11  12  ar  
 13  11  38  ar  
 14  12  13  1   
 15  12  14  ar  
 16  14  15  1   
 17  14  18  ar  
 18  15  16  1   
 19  15  17  1   
 20  18  19  1   
 21  18  37  ar  
 22  19  20  2   
 23  20  21  1   
 24  20  22  1   
 25  22  23  1   
 26  22  37  1   
 27  23  24  1   
 28  23  25  1   
 29  23  26  1   
 30  26  27  1   
 31  26  29  1   
 32  26  33  1   
 33  27  28  1   
 34  29  30  1   
 35  29  31  1   
 36  29  32  1   
 37  33  34  1   
 38  33  35  1   
 39  33  36  1   
 40  37  38  ar  
 41  38  39  ar  
 42  39  40  1   
 43  39  41  ar  
 44  41  42  1   
@<TRIPOS>SUBSTRUCTURE
  1 ****  38 GROUP 4 **** **** 0

# MOE 2018.01 (io_trps.svl 2018.01)

@<TRIPOS>MOLECULE
CHEMBL4645696
49 51 1 0 0 
SMALL
USER_CHARGES


@<TRIPOS>ATOM
      1 O1          2.5340   -1.2130    1.0040 O.3       1 LIG        -0.3630
      2 C1          3.1830    0.0390    0.6740 C.3       1 LIG         0.1200
      3 H1          2.4660    0.8600    0.6300 H         1 LIG         0.0800
      4 H2          3.9420    0.2530    1.4270 H         1 LIG         0.0800
      5 C2          3.8410   -0.1860   -0.6960 C.3       1 LIG        -0.1600
      6 H3          4.4910   -1.0600   -0.6410 H         1 LIG         0.0800
      7 H4          3.0610   -0.4040   -1.4270 H         1 LIG         0.0800
      8 C3          4.6470    1.0290   -1.1950 C.3       1 LIG        -0.1600
      9 H5          3.9800    1.8880   -1.2760 H         1 LIG         0.0800
     10 H6          5.0230    0.8100   -2.1960 H         1 LIG         0.0800
     11 C4          5.8400    1.4220   -0.3140 C.3       1 LIG         0.1200
     12 H7          5.5060    1.6710    0.6950 H         1 LIG         0.0800
     13 H8          6.3260    2.3020   -0.7400 H         1 LIG         0.0800
     14 O2          6.7700    0.3620   -0.2710 O.3       1 LIG        -0.6800
     15 H9          6.3320   -0.4380    0.0330 H         1 LIG         0.4000
     16 C5          1.3110   -1.6110    0.5620 C.ar      1 LIG         0.7020
     17 N1          1.0410   -2.9210    0.7280 N.ar      1 LIG        -0.6200
     18 C6         -0.1230   -3.3680    0.3050 C.ar      1 LIG         0.4100
     19 N2         -0.3460   -4.7010    0.4900 N.pl3     1 LIG        -0.9000
     20 H10        -1.3190   -5.0050    0.6100 H         1 LIG         0.4000
     21 H11         0.3470   -5.1400    1.1130 H         1 LIG         0.4000
     22 C7         -1.0340   -2.4900   -0.2790 C.ar      1 LIG         0.1170
     23 N3         -2.3190   -2.6030   -0.8180 N.am      1 LIG        -0.5470
     24 H12        -2.8640   -3.4560   -1.0060 H         1 LIG         0.3700
     25 C8         -2.7180   -1.3840   -1.2590 C.2       1 LIG         0.6900
     26 O3         -3.8090   -1.1270   -1.7530 O.2       1 LIG        -0.5700
     27 N4         -1.7100   -0.4840   -0.9870 N.am      1 LIG        -0.4770
     28 C9         -1.6190    0.8590   -1.5770 C.3       1 LIG         0.1400
     29 H13        -2.1710    0.8690   -2.5090 H         1 LIG         0.0800
     30 H14        -0.5750    1.0880   -1.7500 H         1 LIG         0.0800
     31 C10        -2.2070    1.9610   -0.6420 C.3       1 LIG        -0.0800
     32 H15        -2.0140    2.9150   -1.1380 H         1 LIG         0.0800
     33 C11        -3.7400    1.8550   -0.4860 C.3       1 LIG        -0.1600
     34 H16        -4.1930    1.5570   -1.4340 H         1 LIG         0.0800
     35 H17        -4.1260    2.8470   -0.2460 H         1 LIG         0.0800
     36 C12        -4.2070    0.8990    0.6150 C.3       1 LIG         0.3430
     37 H18        -5.2900    1.0020    0.7290 H         1 LIG         0.0800
     38 H19        -4.0050   -0.1280    0.3120 H         1 LIG         0.0800
     39 N5         -3.5200    1.1900    1.8970 N.4       1 LIG        -0.9060
     40 H20        -3.7320    2.1390    2.1750 H         1 LIG         0.4500
     41 H21        -3.8620    0.5590    2.6110 H         1 LIG         0.4500
     42 C13        -2.0510    1.0410    1.7630 C.3       1 LIG         0.3430
     43 H22        -1.8030    0.0230    1.4570 H         1 LIG         0.0800
     44 H23        -1.5600    1.2330    2.7210 H         1 LIG         0.0800
     45 C14        -1.4990    2.0260    0.7290 C.3       1 LIG        -0.1600
     46 H24        -0.4280    1.8580    0.6030 H         1 LIG         0.0800
     47 H25        -1.6210    3.0340    1.1280 H         1 LIG         0.0800
     48 C15        -0.6710   -1.1780   -0.3960 C.ar      1 LIG         0.4270
     49 N6          0.4960   -0.6930    0.0240 N.ar      1 LIG        -0.6200
@<TRIPOS>BOND
  1   1   2  1   
  2   1  16  1   
  3   2   3  1   
  4   2   4  1   
  5   2   5  1   
  6   5   6  1   
  7   5   7  1   
  8   5   8  1   
  9   8   9  1   
 10   8  10  1   
 11   8  11  1   
 12  11  12  1   
 13  11  13  1   
 14  11  14  1   
 15  14  15  1   
 16  16  17  ar  
 17  16  49  ar  
 18  17  18  ar  
 19  18  19  1   
 20  18  22  ar  
 21  19  20  1   
 22  19  21  1   
 23  22  23  1   
 24  22  48  ar  
 25  23  24  1   
 26  23  25  am  
 27  25  26  2   
 28  25  27  am  
 29  27  28  1   
 30  27  48  1   
 31  28  29  1   
 32  28  30  1   
 33  28  31  1   
 34  31  32  1   
 35  31  33  1   
 36  31  45  1   
 37  33  34  1   
 38  33  35  1   
 39  33  36  1   
 40  36  37  1   
 41  36  38  1   
 42  36  39  1   
 43  39  40  1   
 44  39  41  1   
 45  39  42  1   
 46  42  43  1   
 47  42  44  1   
 48  42  45  1   
 49  45  46  1   
 50  45  47  1   
 51  48  49  ar  
@<TRIPOS>SUBSTRUCTURE
  1 ****  49 GROUP 4 **** **** 0

# MOE 2018.01 (io_trps.svl 2018.01)

