@<TRIPOS>MOLECULE
ZINC000001529646
  37   36    0    0    0
SMALL
USER_CHARGES
NO_NAME
@<TRIPOS>ATOM
      1 N1         -0.0111    0.9658    0.0074 N.pl3     1 LIG      -0.7800
      2 H2          0.0021   -0.0041    0.0020 H         1 LIG       0.4400
      3 H3          0.8223    1.4622    0.0021 H         1 LIG       0.4200
      4 C4         -1.1486    1.6021    0.0162 C.cat     1 LIG       0.7400
      5 N5         -1.1673    2.9768    0.0238 N.pl3     1 LIG      -0.7200
      6 C6          0.0914    3.7265    0.0219 C.3       1 LIG       0.1100
      7 C7         -0.2086    5.2268    0.0314 C.3       1 LIG      -0.1400
      8 C8          1.1060    6.0097    0.0295 C.3       1 LIG      -0.1200
      9 C9          0.8060    7.5100    0.0390 C.3       1 LIG      -0.0500
     10 H10         0.1608    7.7461    0.8852 H         1 LIG       0.1400
     11 N11         0.1301    7.8822   -1.2110 N.4       1 LIG      -0.6100
     12 H12        -0.0677    8.8716   -1.2047 H         1 LIG       0.4300
     13 H13         0.7274    7.6636   -1.9943 H         1 LIG       0.4300
     14 H14        -0.7336    7.3670   -1.2926 H         1 LIG       0.4100
     15 C15         2.0960    8.2794    0.1609 C.2       1 LIG       0.4900
     16 O16         2.5136    8.9234   -0.7864 O.co2     1 LIG      -0.6700
     17 O17         2.7222    8.2579    1.2069 O.co2     1 LIG      -0.6300
     18 N18        -2.3298    0.8986    0.0180 N.pl3     1 LIG      -0.6100
     19 C19        -2.3099   -0.5662    0.0099 C.3       1 LIG       0.0800
     20 H20        -1.4605   -0.9213    0.5934 H         1 LIG       0.0900
     21 C21        -3.6073   -1.0973    0.6228 C.3       1 LIG      -0.1800
     22 C22        -3.6723   -0.7074    2.0771 C.2       1 LIG       0.4900
     23 O23        -2.7650   -0.0644    2.5770 O.co2     1 LIG      -0.7000
     24 O24        -4.6321   -1.0350    2.7538 O.co2     1 LIG      -0.7000
     25 C25        -2.1860   -1.0591   -1.4088 C.2       1 LIG       0.4800
     26 O26        -2.1204   -0.2608   -2.3280 O.co2     1 LIG      -0.6900
     27 O27        -2.1514   -2.2562   -1.6374 O.co2     1 LIG      -0.6700
     28 H28        -2.0138    3.4503    0.0304 H         1 LIG       0.4200
     29 H29         0.6707    3.4661    0.9077 H         1 LIG       0.0900
     30 H30         0.6623    3.4758   -0.8722 H         1 LIG       0.0800
     31 H31        -0.7879    5.4871   -0.8544 H         1 LIG       0.0700
     32 H32        -0.7794    5.4774    0.9255 H         1 LIG       0.0900
     33 H33         1.6853    5.7493    0.9153 H         1 LIG       0.1200
     34 H34         1.6768    5.7590   -0.8646 H         1 LIG       0.0900
     35 H35        -3.1763    1.3721    0.0246 H         1 LIG       0.4200
     36 H36        -4.4600   -0.6712    0.0940 H         1 LIG       0.0700
     37 H37        -3.6320   -2.1835    0.5364 H         1 LIG       0.0900
@<TRIPOS>BOND
   1    1    2 1
   2    1    3 1
   3    1    4 ar
   4    4    5 ar
   5    4   18 ar
   6    5    6 1
   7    5   28 1
   8    6    7 1
   9    6   29 1
  10    6   30 1
  11    7    8 1
  12    7   31 1
  13    7   32 1
  14    8    9 1
  15    8   33 1
  16    8   34 1
  17    9   10 1
  18    9   11 1
  19    9   15 1
  20   11   12 1
  21   11   13 1
  22   11   14 1
  23   15   16 ar
  24   15   17 ar
  25   18   19 1
  26   18   35 1
  27   19   20 1
  28   19   21 1
  29   19   25 1
  30   21   22 1
  31   21   36 1
  32   21   37 1
  33   22   23 ar
  34   22   24 ar
  35   25   26 ar
  36   25   27 ar
