@<TRIPOS>MOLECULE
1a30 ligand
   49    48     1     0     0
SMALL
GAST_HUCK

@<TRIPOS>ATOM
      1 N1         37.6460   34.8010   34.0930 N.4       1 LIG         0.2380
      2 C1         38.0720   36.2270   34.0770 C.3       1 LIG         0.0665
      3 C2         36.9990   37.0930   33.4200 C.2       1 LIG         0.2269
      4 O1         36.2230   37.7720   34.1010 O.2       1 LIG        -0.3907
      5 C3         39.4140   36.3790   33.3570 C.3       1 LIG         0.0194
      6 C4         39.9910   35.0740   32.8450 C.3       1 LIG         0.0075
      7 C5         39.7530   34.8590   31.3640 C.2       1 LIG         0.0351
      8 O2         40.7370   34.8780   30.5870 O.co2     1 LIG        -0.5690
      9 O3         38.5790   34.6560   30.9800 O.co2     1 LIG        -0.5690
     10 N2         36.9980   37.1070   32.0920 N.am      1 LIG        -0.2595
     11 C6         36.0390   37.8880   31.3230 C.3       1 LIG         0.1424
     12 C7         34.9890   36.9520   30.7520 C.2       1 LIG         0.2051
     13 O4         33.8530   37.3590   30.4960 O.2       1 LIG        -0.3943
     14 C8         36.7650   38.6540   30.2190 C.3       1 LIG         0.0406
     15 C9         38.0370   37.9550   29.7860 C.2       1 LIG         0.0393
     16 O5         37.9400   37.0630   28.9230 O.co2     1 LIG        -0.5688
     17 O6         39.1330   38.3200   30.2690 O.co2     1 LIG        -0.5688
     18 N3         35.3980   35.7100   30.5130 N.am      1 LIG        -0.2694
     19 C10        34.5210   34.7030   29.9350 C.3       1 LIG         0.0946
     20 C11        34.0680   33.6590   30.9390 C.2       1 LIG         0.0601
     21 O7         32.8420   33.5410   31.1520 O.co2     1 LIG        -0.5666
     22 C12        35.2320   34.0330   28.7670 C.3       1 LIG        -0.0156
     23 C13        34.5840   34.4770   27.4600 C.3       1 LIG        -0.0431
     24 C14        33.0920   34.4030   27.5660 C.3       1 LIG        -0.0625
     25 C15        35.0770   35.8690   27.0910 C.3       1 LIG        -0.0625
     26 O8         34.9420   32.9710   31.5050 O.co2     1 LIG        -0.5666
     27 H1         38.3626   34.2227   34.5317 H         1 LIG         0.2015
     28 H2         37.4045   34.4655   33.1605 H         1 LIG         0.2015
     29 H3         36.7355   34.6808   34.5369 H         1 LIG         0.2015
     30 H4         38.1995   36.5666   35.1313 H         1 LIG         0.1099
     31 H5         40.1508   36.9034   34.0092 H         1 LIG         0.0363
     32 H6         39.3322   37.1220   32.5296 H         1 LIG         0.0363
     33 H7         39.6088   34.2107   33.4383 H         1 LIG         0.0434
     34 H8         41.0764   34.9969   33.0883 H         1 LIG         0.0434
     35 H9         37.6930   36.5515   31.5933 H         1 LIG         0.1886
     36 H10        35.5408   38.6186   32.0021 H         1 LIG         0.0819
     37 H11        36.9656   39.7080   30.5224 H         1 LIG         0.0478
     38 H12        36.0929   38.8459   29.3503 H         1 LIG         0.0478
     39 H13        36.3584   35.4544   30.7424 H         1 LIG         0.1875
     40 H14        33.6152   35.2187   29.5392 H         1 LIG         0.0726
     41 H15        35.2589   32.9230   28.8694 H         1 LIG         0.0308
     42 H16        36.3312   34.2197   28.7783 H         1 LIG         0.0308
     43 H17        34.9078   33.7730   26.6583 H         1 LIG         0.0297
     44 H18        32.6182   34.7277   26.6103 H         1 LIG         0.0232
     45 H19        32.7083   34.9827   28.4377 H         1 LIG         0.0232
     46 H20        32.7475   33.3892   27.8770 H         1 LIG         0.0232
     47 H21        34.6032   36.1937   26.1353 H         1 LIG         0.0232
     48 H22        36.1899   35.9229   27.0478 H         1 LIG         0.0232
     49 H23        34.9125   36.6045   27.9127 H         1 LIG         0.0232
@<TRIPOS>BOND
     1    3    2 1  
     2    2    5 1  
     3    2    1 1  
     4    5    6 1  
     5    6    7 1  
     6    7    8 ar 
     7    7    9 ar 
     8    3    4 2  
     9   12   11 1  
    10   11   14 1  
    11   11   10 1  
    12   14   15 1  
    13   15   16 ar 
    14   15   17 ar 
    15   12   13 2  
    16   19   20 1  
    17   19   22 1  
    18   18   19 1  
    19   22   23 1  
    20   23   25 1  
    21   23   24 1  
    22   20   26 ar 
    23   20   21 ar 
    24   10    3 am 
    25   12   18 am 
    26    1   27 1  
    27    1   28 1  
    28    1   29 1  
    29    2   30 1  
    30    5   31 1  
    31    5   32 1  
    32    6   33 1  
    33    6   34 1  
    34   10   35 1  
    35   11   36 1  
    36   14   37 1  
    37   14   38 1  
    38   18   39 1  
    39   19   40 1  
    40   22   41 1  
    41   22   42 1  
    42   23   43 1  
    43   24   44 1  
    44   24   45 1  
    45   24   46 1  
    46   25   47 1  
    47   25   48 1  
    48   25   49 1  
@<TRIPOS>SUBSTRUCTURE
     1 LIG         1

