@<TRIPOS>MOLECULE
1a30 ligand
   49    48     1     0     0
SMALL
GAST_HUCK

@<TRIPOS>ATOM
      1 N1         36.7220   37.7120   34.7210 N.4       1 LIG         0.2380
      2 C1         36.7510   36.9540   33.4400 C.3       1 LIG         0.0665
      3 C2         37.8280   35.8720   33.4880 C.2       1 LIG         0.2269
      4 O1         37.5900   34.7570   33.9650 O.2       1 LIG        -0.3907
      5 C3         36.9800   37.9010   32.2590 C.3       1 LIG         0.0194
      6 C4         37.2320   39.3410   32.6630 C.3       1 LIG         0.0075
      7 C5         38.7030   39.7070   32.6710 C.2       1 LIG         0.0351
      8 O2         39.4530   39.1670   33.5160 O.co2     1 LIG        -0.5690
      9 O3         39.1080   40.5290   31.8180 O.co2     1 LIG        -0.5690
     10 N2         38.9950   36.1920   32.9420 N.am      1 LIG        -0.2595
     11 C6         40.1170   35.2640   32.9070 C.3       1 LIG         0.1424
     12 C7         41.0690   35.6010   34.0410 C.2       1 LIG         0.2051
     13 O4         41.4840   34.7220   34.8000 O.2       1 LIG        -0.3943
     14 C8         40.8130   35.3460   31.5500 C.3       1 LIG         0.0406
     15 C9         40.0750   36.2540   30.5880 C.2       1 LIG         0.0393
     16 O5         39.1610   35.7520   29.9080 O.co2     1 LIG        -0.5688
     17 O6         40.3720   37.4700   30.5400 O.co2     1 LIG        -0.5688
     18 N3         41.4430   36.8750   34.1140 N.am      1 LIG        -0.2694
     19 C10        42.3780   37.3510   35.1230 C.3       1 LIG         0.0946
     20 C11        41.7250   37.5980   36.4710 C.2       1 LIG         0.0601
     21 O7         42.2400   37.0690   37.4790 O.co2     1 LIG        -0.5666
     22 C12        43.0470   38.6240   34.6240 C.3       1 LIG        -0.0156
     23 C13        44.5270   38.5930   34.9880 C.3       1 LIG        -0.0431
     24 C14        45.3560   38.2970   33.7750 C.3       1 LIG        -0.0625
     25 C15        44.9180   39.9020   35.6600 C.3       1 LIG        -0.0625
     26 O8         40.7050   38.3150   36.5060 O.co2     1 LIG        -0.5666
     27 H1         36.0028   38.4346   34.6889 H         1 LIG         0.2015
     28 H2         37.6370   38.0964   34.9562 H         1 LIG         0.2015
     29 H3         36.6060   37.0954   35.5252 H         1 LIG         0.2015
     30 H4         35.7618   36.4577   33.3043 H         1 LIG         0.1099
     31 H5         36.1320   37.8394   31.5377 H         1 LIG         0.0363
     32 H6         37.8062   37.5259   31.6109 H         1 LIG         0.0363
     33 H7         36.7611   39.5657   33.6484 H         1 LIG         0.0434
     34 H8         36.6514   40.0420   32.0190 H         1 LIG         0.0434
     35 H9         39.1098   37.1194   32.5331 H         1 LIG         0.1886
     36 H10        39.7330   34.2275   33.0538 H         1 LIG         0.0819
     37 H11        40.9669   34.3322   31.1122 H         1 LIG         0.0478
     38 H12        41.8790   35.6538   31.6599 H         1 LIG         0.0478
     39 H13        41.0623   37.5403   33.4411 H         1 LIG         0.1875
     40 H14        43.1672   36.5749   35.2575 H         1 LIG         0.0726
     41 H15        42.5391   39.5429   34.9993 H         1 LIG         0.0308
     42 H16        42.8838   38.7870   33.5331 H         1 LIG         0.0308
     43 H17        44.6840   37.7686   35.7221 H         1 LIG         0.0297
     44 H18        46.4385   38.2743   34.0412 H         1 LIG         0.0232
     45 H19        45.1472   39.0111   32.9446 H         1 LIG         0.0232
     46 H20        45.0325   37.3571   33.2698 H         1 LIG         0.0232
     47 H21        46.0005   39.8793   35.9262 H         1 LIG         0.0232
     48 H22        44.2737   40.1306   36.5408 H         1 LIG         0.0232
     49 H23        44.6576   40.7885   35.0359 H         1 LIG         0.0232
@<TRIPOS>BOND
     1    3    2 1  
     2    2    5 1  
     3    2    1 1  
     4    5    6 1  
     5    6    7 1  
     6    7    8 ar 
     7    7    9 ar 
     8    3    4 2  
     9   12   11 1  
    10   11   14 1  
    11   11   10 1  
    12   14   15 1  
    13   15   16 ar 
    14   15   17 ar 
    15   12   13 2  
    16   19   20 1  
    17   19   22 1  
    18   18   19 1  
    19   22   23 1  
    20   23   25 1  
    21   23   24 1  
    22   20   26 ar 
    23   20   21 ar 
    24   10    3 am 
    25   12   18 am 
    26    1   27 1  
    27    1   28 1  
    28    1   29 1  
    29    2   30 1  
    30    5   31 1  
    31    5   32 1  
    32    6   33 1  
    33    6   34 1  
    34   10   35 1  
    35   11   36 1  
    36   14   37 1  
    37   14   38 1  
    38   18   39 1  
    39   19   40 1  
    40   22   41 1  
    41   22   42 1  
    42   23   43 1  
    43   24   44 1  
    44   24   45 1  
    45   24   46 1  
    46   25   47 1  
    47   25   48 1  
    48   25   49 1  
@<TRIPOS>SUBSTRUCTURE
     1 LIG         1

