@<TRIPOS>MOLECULE
1a30 ligand
   49    48     1     0     0
SMALL
GAST_HUCK

@<TRIPOS>ATOM
      1 N1         40.4360   39.3020   33.6110 N.4       1 LIG         0.2380
      2 C1         40.5940   38.1890   34.5860 C.3       1 LIG         0.0665
      3 C2         41.1400   36.9450   33.8880 C.2       1 LIG         0.2269
      4 O1         42.3560   36.7820   33.7360 O.2       1 LIG        -0.3907
      5 C3         39.2620   37.8860   35.2780 C.3       1 LIG         0.0194
      6 C4         38.0900   38.6780   34.7330 C.3       1 LIG         0.0075
      7 C5         37.2840   37.9130   33.7010 C.2       1 LIG         0.0351
      8 O2         37.8200   37.6360   32.6030 O.co2     1 LIG        -0.5690
      9 O3         36.1160   37.5760   34.0000 O.co2     1 LIG        -0.5690
     10 N2         40.2370   36.0470   33.5140 N.am      1 LIG        -0.2595
     11 C6         40.6040   34.8080   32.8410 C.3       1 LIG         0.1424
     12 C7         40.3110   34.9500   31.3580 C.2       1 LIG         0.2051
     13 O4         41.2170   34.8720   30.5250 O.2       1 LIG        -0.3943
     14 C8         39.8350   33.6400   33.4540 C.3       1 LIG         0.0406
     15 C9         38.7660   34.1090   34.4200 C.2       1 LIG         0.0393
     16 O5         39.0350   34.0820   35.6350 O.co2     1 LIG        -0.5688
     17 O6         37.6810   34.5440   33.9710 O.co2     1 LIG        -0.5688
     18 N3         39.0300   35.1100   31.0400 N.am      1 LIG        -0.2694
     19 C10        38.5820   35.2250   29.6610 C.3       1 LIG         0.0946
     20 C11        38.1950   36.6420   29.2760 C.2       1 LIG         0.0601
     21 O7         39.0470   37.5440   29.4230 O.co2     1 LIG        -0.5666
     22 C12        37.4090   34.2810   29.4350 C.3       1 LIG        -0.0156
     23 C13        36.8020   33.8990   30.7810 C.3       1 LIG        -0.0431
     24 C14        35.4570   34.5370   30.9460 C.3       1 LIG        -0.0625
     25 C15        36.7520   32.3830   30.9080 C.3       1 LIG        -0.0625
     26 O8         37.0440   36.8360   28.8350 O.co2     1 LIG        -0.5666
     27 H1         40.0714   40.1328   34.0771 H         1 LIG         0.2015
     28 H2         39.8609   39.0302   32.8137 H         1 LIG         0.2015
     29 H3         41.3041   39.4963   33.1119 H         1 LIG         0.2015
     30 H4         41.3284   38.5055   35.3630 H         1 LIG         0.1099
     31 H5         39.3521   38.0285   36.3802 H         1 LIG         0.0363
     32 H6         39.0443   36.7929   35.2466 H         1 LIG         0.0363
     33 H7         38.4284   39.6592   34.3255 H         1 LIG         0.0434
     34 H8         37.4356   39.0396   35.5602 H         1 LIG         0.0434
     35 H9         39.2519   36.2307   33.7044 H         1 LIG         0.1886
     36 H10        41.6966   34.6326   32.9780 H         1 LIG         0.0819
     37 H11        40.5255   32.9103   33.9377 H         1 LIG         0.0478
     38 H12        39.4057   32.9795   32.6649 H         1 LIG         0.0478
     39 H13        38.3382   35.1536   31.7882 H         1 LIG         0.1875
     40 H14        39.4182   34.9025   28.9977 H         1 LIG         0.0726
     41 H15        37.6956   33.3879   28.8321 H         1 LIG         0.0308
     42 H16        36.6521   34.7075   28.7361 H         1 LIG         0.0308
     43 H17        37.4698   34.2902   31.5836 H         1 LIG         0.0297
     44 H18        35.0132   34.2577   31.9300 H         1 LIG         0.0232
     45 H19        34.7748   34.2934   30.0984 H         1 LIG         0.0232
     46 H20        35.5020   35.6427   30.8093 H         1 LIG         0.0232
     47 H21        36.3082   32.1037   31.8920 H         1 LIG         0.0232
     48 H22        37.7515   31.9148   30.7496 H         1 LIG         0.0232
     49 H23        36.2149   31.9072   30.0545 H         1 LIG         0.0232
@<TRIPOS>BOND
     1    3    2 1  
     2    2    5 1  
     3    2    1 1  
     4    5    6 1  
     5    6    7 1  
     6    7    8 ar 
     7    7    9 ar 
     8    3    4 2  
     9   12   11 1  
    10   11   14 1  
    11   11   10 1  
    12   14   15 1  
    13   15   16 ar 
    14   15   17 ar 
    15   12   13 2  
    16   19   20 1  
    17   19   22 1  
    18   18   19 1  
    19   22   23 1  
    20   23   25 1  
    21   23   24 1  
    22   20   26 ar 
    23   20   21 ar 
    24   10    3 am 
    25   12   18 am 
    26    1   27 1  
    27    1   28 1  
    28    1   29 1  
    29    2   30 1  
    30    5   31 1  
    31    5   32 1  
    32    6   33 1  
    33    6   34 1  
    34   10   35 1  
    35   11   36 1  
    36   14   37 1  
    37   14   38 1  
    38   18   39 1  
    39   19   40 1  
    40   22   41 1  
    41   22   42 1  
    42   23   43 1  
    43   24   44 1  
    44   24   45 1  
    45   24   46 1  
    46   25   47 1  
    47   25   48 1  
    48   25   49 1  
@<TRIPOS>SUBSTRUCTURE
     1 LIG         1

