@<TRIPOS>MOLECULE
1a30 ligand
   49    48     1     0     0
SMALL
GAST_HUCK

@<TRIPOS>ATOM
      1 N1         39.8040   38.4010   35.1970 N.4       1 LIG         0.2380
      2 C1         39.4580   37.8930   33.8420 C.3       1 LIG         0.0665
      3 C2         37.9520   37.6610   33.7310 C.2       1 LIG         0.2269
      4 O1         37.2250   37.7080   34.7300 O.2       1 LIG        -0.3907
      5 C3         40.2320   36.6080   33.5350 C.3       1 LIG         0.0194
      6 C4         41.0550   36.6730   32.2630 C.3       1 LIG         0.0075
      7 C5         40.5540   35.7340   31.1830 C.2       1 LIG         0.0351
      8 O2         39.3700   35.8460   30.7890 O.co2     1 LIG        -0.5690
      9 O3         41.3560   34.8930   30.7180 O.co2     1 LIG        -0.5690
     10 N2         37.4850   37.4670   32.5040 N.am      1 LIG        -0.2595
     11 C6         36.0710   37.2370   32.2380 C.3       1 LIG         0.1424
     12 C7         35.9040   35.8560   31.6290 C.2       1 LIG         0.2051
     13 O4         36.2620   34.8480   32.2430 O.2       1 LIG        -0.3943
     14 C8         35.5370   38.3250   31.3100 C.3       1 LIG         0.0406
     15 C9         36.6480   39.0090   30.5400 C.2       1 LIG         0.0393
     16 O5         37.0550   40.1060   30.9670 O.co2     1 LIG        -0.5688
     17 O6         37.1440   38.4400   29.5410 O.co2     1 LIG        -0.5688
     18 N3         35.3150   35.8230   30.4370 N.am      1 LIG        -0.2694
     19 C10        35.0510   34.5740   29.7370 C.3       1 LIG         0.0946
     20 C11        35.9930   34.3340   28.5720 C.2       1 LIG         0.0601
     21 O7         37.1610   33.9680   28.8250 O.co2     1 LIG        -0.5666
     22 C12        33.6070   34.5670   29.2550 C.3       1 LIG        -0.0156
     23 C13        32.8380   33.4680   29.9800 C.3       1 LIG        -0.0431
     24 C14        31.8000   32.8750   29.0770 C.3       1 LIG        -0.0625
     25 C15        33.8120   32.4280   30.5160 C.3       1 LIG        -0.0625
     26 O8         35.5560   34.5160   27.4170 O.co2     1 LIG        -0.5666
     27 H1         40.8094   38.5559   35.2711 H         1 LIG         0.2015
     28 H2         39.4587   37.7857   35.9335 H         1 LIG         0.2015
     29 H3         39.2716   39.2373   35.4371 H         1 LIG         0.2015
     30 H4         39.7499   38.6655   33.0929 H         1 LIG         0.1099
     31 H5         39.5426   35.7320   33.5110 H         1 LIG         0.0363
     32 H6         40.8722   36.3201   34.4013 H         1 LIG         0.0363
     33 H7         42.1341   36.4923   32.4779 H         1 LIG         0.0434
     34 H8         41.1173   37.7193   31.8827 H         1 LIG         0.0434
     35 H9         38.1381   37.4793   31.7206 H         1 LIG         0.1886
     36 H10        35.5110   37.2771   33.2014 H         1 LIG         0.0819
     37 H11        34.9167   39.0645   31.8682 H         1 LIG         0.0478
     38 H12        34.7560   37.9235   30.6229 H         1 LIG         0.0478
     39 H13        35.0391   36.7018   29.9988 H         1 LIG         0.1875
     40 H14        35.1777   33.7370   30.4627 H         1 LIG         0.0726
     41 H15        33.5323   34.4739   28.1464 H         1 LIG         0.0308
     42 H16        33.1208   35.5645   29.3633 H         1 LIG         0.0308
     43 H17        32.3147   33.9300   30.8494 H         1 LIG         0.0297
     44 H18        31.2376   32.0713   29.6072 H         1 LIG         0.0232
     45 H19        32.2410   32.5112   28.1197 H         1 LIG         0.0232
     46 H20        31.1187   33.6530   28.6600 H         1 LIG         0.0232
     47 H21        33.2496   31.6243   31.0462 H         1 LIG         0.0232
     48 H22        34.6004   32.8834   31.1596 H         1 LIG         0.0232
     49 H23        34.4731   32.0202   29.7161 H         1 LIG         0.0232
@<TRIPOS>BOND
     1    3    2 1  
     2    2    5 1  
     3    2    1 1  
     4    5    6 1  
     5    6    7 1  
     6    7    8 ar 
     7    7    9 ar 
     8    3    4 2  
     9   12   11 1  
    10   11   14 1  
    11   11   10 1  
    12   14   15 1  
    13   15   16 ar 
    14   15   17 ar 
    15   12   13 2  
    16   19   20 1  
    17   19   22 1  
    18   18   19 1  
    19   22   23 1  
    20   23   25 1  
    21   23   24 1  
    22   20   26 ar 
    23   20   21 ar 
    24   10    3 am 
    25   12   18 am 
    26    1   27 1  
    27    1   28 1  
    28    1   29 1  
    29    2   30 1  
    30    5   31 1  
    31    5   32 1  
    32    6   33 1  
    33    6   34 1  
    34   10   35 1  
    35   11   36 1  
    36   14   37 1  
    37   14   38 1  
    38   18   39 1  
    39   19   40 1  
    40   22   41 1  
    41   22   42 1  
    42   23   43 1  
    43   24   44 1  
    44   24   45 1  
    45   24   46 1  
    46   25   47 1  
    47   25   48 1  
    48   25   49 1  
@<TRIPOS>SUBSTRUCTURE
     1 LIG         1

