@<TRIPOS>MOLECULE
1a30 ligand
   49    48     1     0     0
SMALL
GAST_HUCK

@<TRIPOS>ATOM
      1 N1         38.6450   36.2440   33.9020 N.4       1 LIG         0.2380
      2 C1         38.5270   37.4900   33.0980 C.3       1 LIG         0.0665
      3 C2         37.1640   37.5530   32.4110 C.2       1 LIG         0.2269
      4 O1         36.1250   37.6770   33.0690 O.2       1 LIG        -0.3907
      5 C3         39.6600   37.5780   32.0720 C.3       1 LIG         0.0194
      6 C4         40.5780   36.3710   32.0620 C.3       1 LIG         0.0075
      7 C5         40.4680   35.5510   30.7910 C.2       1 LIG         0.0351
      8 O2         39.4280   35.6500   30.0990 O.co2     1 LIG        -0.5690
      9 O3         41.4330   34.8180   30.4790 O.co2     1 LIG        -0.5690
     10 N2         37.1820   37.5200   31.0840 N.am      1 LIG        -0.2595
     11 C6         35.9630   37.5760   30.2890 C.3       1 LIG         0.1424
     12 C7         35.6610   36.1870   29.7550 C.2       1 LIG         0.2051
     13 O4         35.9710   35.8720   28.6040 O.2       1 LIG        -0.3943
     14 C8         36.1310   38.5850   29.1560 C.3       1 LIG         0.0406
     15 C9         37.5780   38.9920   28.9690 C.2       1 LIG         0.0393
     16 O5         37.9680   40.0230   29.5480 O.co2     1 LIG        -0.5688
     17 O6         38.3360   38.2670   28.2850 O.co2     1 LIG        -0.5688
     18 N3         35.0980   35.3500   30.6210 N.am      1 LIG        -0.2694
     19 C10        34.7790   33.9730   30.2740 C.3       1 LIG         0.0946
     20 C11        33.3090   33.7630   29.9620 C.2       1 LIG         0.0601
     21 O7         32.9400   33.8650   28.7720 O.co2     1 LIG        -0.5666
     22 C12        35.2100   33.0580   31.4110 C.3       1 LIG        -0.0156
     23 C13        36.6020   32.5080   31.1180 C.3       1 LIG        -0.0431
     24 C14        36.9300   32.6690   29.6640 C.3       1 LIG        -0.0625
     25 C15        37.6210   33.1800   32.0260 C.3       1 LIG        -0.0625
     26 O8         32.5400   33.4990   30.9090 O.co2     1 LIG        -0.5666
     27 H1         39.5551   36.2019   34.3607 H         1 LIG         0.2015
     28 H2         38.4633   35.4115   33.3414 H         1 LIG         0.2015
     29 H3         37.8788   36.1479   34.5684 H         1 LIG         0.2015
     30 H4         38.6116   38.3614   33.7884 H         1 LIG         0.1099
     31 H5         40.2469   38.5150   32.2163 H         1 LIG         0.0363
     32 H6         39.2508   37.7671   31.0522 H         1 LIG         0.0363
     33 H7         40.4077   35.7346   32.9616 H         1 LIG         0.0434
     34 H8         41.6346   36.6736   32.2496 H         1 LIG         0.0434
     35 H9         38.0800   37.4532   30.6049 H         1 LIG         0.1886
     36 H10        35.1205   37.9030   30.9420 H         1 LIG         0.0819
     37 H11        35.4764   39.4750   29.3063 H         1 LIG         0.0478
     38 H12        35.6920   38.2025   28.2051 H         1 LIG         0.0478
     39 H13        34.8823   35.6841   31.5603 H         1 LIG         0.1875
     40 H14        35.3677   33.6993   29.3675 H         1 LIG         0.0726
     41 H15        34.4685   32.2482   31.6053 H         1 LIG         0.0308
     42 H16        35.1563   33.5637   32.4032 H         1 LIG         0.0308
     43 H17        36.5981   31.4178   31.3518 H         1 LIG         0.0297
     44 H18        37.9477   32.2669   29.4498 H         1 LIG         0.0232
     45 H19        36.8216   33.7266   29.3280 H         1 LIG         0.0232
     46 H20        36.1544   32.2076   29.0092 H         1 LIG         0.0232
     47 H21        38.6387   32.7779   31.8118 H         1 LIG         0.0232
     48 H22        37.3503   33.0850   33.1035 H         1 LIG         0.0232
     49 H23        37.5839   34.2917   31.9482 H         1 LIG         0.0232
@<TRIPOS>BOND
     1    3    2 1  
     2    2    5 1  
     3    2    1 1  
     4    5    6 1  
     5    6    7 1  
     6    7    8 ar 
     7    7    9 ar 
     8    3    4 2  
     9   12   11 1  
    10   11   14 1  
    11   11   10 1  
    12   14   15 1  
    13   15   16 ar 
    14   15   17 ar 
    15   12   13 2  
    16   19   20 1  
    17   19   22 1  
    18   18   19 1  
    19   22   23 1  
    20   23   25 1  
    21   23   24 1  
    22   20   26 ar 
    23   20   21 ar 
    24   10    3 am 
    25   12   18 am 
    26    1   27 1  
    27    1   28 1  
    28    1   29 1  
    29    2   30 1  
    30    5   31 1  
    31    5   32 1  
    32    6   33 1  
    33    6   34 1  
    34   10   35 1  
    35   11   36 1  
    36   14   37 1  
    37   14   38 1  
    38   18   39 1  
    39   19   40 1  
    40   22   41 1  
    41   22   42 1  
    42   23   43 1  
    43   24   44 1  
    44   24   45 1  
    45   24   46 1  
    46   25   47 1  
    47   25   48 1  
    48   25   49 1  
@<TRIPOS>SUBSTRUCTURE
     1 LIG         1

