MODEL 1
REMARK VINA RESULT:      -6.4      0.000      0.000
REMARK  13 active torsions:
REMARK  status: ('A' for Active; 'I' for Inactive)
REMARK    1  A    between atoms: C1_2  and  N1_1 
REMARK    2  A    between atoms: C2_3  and  C1_2 
REMARK    3  A    between atoms: C1_2  and  C3_5 
REMARK       I    between atoms: N2_10  and  C2_3 
REMARK    4  A    between atoms: C3_5  and  C4_6 
REMARK    5  A    between atoms: C4_6  and  C5_7 
REMARK    6  A    between atoms: C6_11  and  N2_10 
REMARK    7  A    between atoms: C7_12  and  C6_11 
REMARK    8  A    between atoms: C6_11  and  C8_14 
REMARK       I    between atoms: C7_12  and  N3_18 
REMARK    9  A    between atoms: C8_14  and  C9_15 
REMARK   10  A    between atoms: N3_18  and  C10_19 
REMARK   11  A    between atoms: C10_19  and  C11_20 
REMARK   12  A    between atoms: C10_19  and  C12_22 
REMARK   13  A    between atoms: C12_22  and  C13_23 
ROOT
ATOM      1  C6  LIG d          39.555  35.145  33.075  0.00  0.00     0.186 C 
ENDROOT
BRANCH   1   2
ATOM      2  C7  LIG d          39.149  36.254  34.029  0.00  0.00     0.241 C 
ATOM      3  O4  LIG d          39.089  36.051  35.244  0.00  0.00    -0.271 OA
ATOM      4  N3  LIG d          38.919  37.438  33.468  0.00  0.00    -0.345 N 
ATOM      5  H13 LIG d          38.998  37.525  32.475  0.00  0.00     0.163 HD
BRANCH   4   6
ATOM      6  C10 LIG d          38.555  38.609  34.251  0.00  0.00     0.185 C 
BRANCH   6   7
ATOM      7  C11 LIG d          37.076  38.663  34.590  0.00  0.00     0.196 C 
ATOM      8  O8  LIG d          36.735  39.256  35.634  0.00  0.00    -0.646 OA
ATOM      9  O7  LIG d          36.273  38.114  33.806  0.00  0.00    -0.646 OA
ENDBRANCH   6   7
BRANCH   6  10
ATOM     10  C12 LIG d          38.966  39.864  33.494  0.00  0.00     0.040 C 
BRANCH  10  11
ATOM     11  C13 LIG d          39.205  39.515  32.029  0.00  0.00    -0.020 C 
ATOM     12  C15 LIG d          40.576  40.016  31.600  0.00  0.00     0.009 C 
ATOM     13  C14 LIG d          38.099  40.058  31.177  0.00  0.00     0.009 C 
ENDBRANCH  10  11
ENDBRANCH   6  10
ENDBRANCH   4   6
ENDBRANCH   1   2
BRANCH   1  14
ATOM     14  C8  LIG d          40.917  35.423  32.443  0.00  0.00     0.147 C 
BRANCH  14  15
ATOM     15  C9  LIG d          40.817  35.627  30.945  0.00  0.00     0.175 C 
ATOM     16  O5  LIG d          41.236  34.715  30.209  0.00  0.00    -0.648 OA
ATOM     17  O6  LIG d          40.284  36.670  30.502  0.00  0.00    -0.648 OA
ENDBRANCH  14  15
ENDBRANCH   1  14
BRANCH   1  18
ATOM     18  N2  LIG d          38.544  35.028  32.033  0.00  0.00    -0.345 N 
ATOM     19  C2  LIG d          37.842  33.916  31.849  0.00  0.00     0.249 C 
ATOM     20  O1  LIG d          38.021  32.888  32.512  0.00  0.00    -0.271 OA
ATOM     21  H9  LIG d          38.373  35.811  31.435  0.00  0.00     0.163 HD
BRANCH  19  22
ATOM     22  C1  LIG d          36.823  33.952  30.711  0.00  0.00     0.275 C 
BRANCH  22  23
ATOM     23  C3  LIG d          35.913  32.722  30.754  0.00  0.00     0.053 C 
BRANCH  23  24
ATOM     24  C4  LIG d          34.678  32.898  31.615  0.00  0.00     0.115 C 
BRANCH  24  25
ATOM     25  C5  LIG d          33.454  33.313  30.821  0.00  0.00     0.172 C 
ATOM     26  O2  LIG d          32.583  32.450  30.565  0.00  0.00    -0.648 OA
ATOM     27  O3  LIG d          33.361  34.510  30.468  0.00  0.00    -0.648 OA
ENDBRANCH  24  25
ENDBRANCH  23  24
ENDBRANCH  22  23
BRANCH  22  28
ATOM     28  N1  LIG d          37.518  34.044  29.398  0.00  0.00    -0.066 N 
ATOM     29  H1  LIG d          37.608  33.122  29.001  0.00  0.00     0.275 HD
ATOM     30  H2  LIG d          38.433  34.444  29.531  0.00  0.00     0.275 HD
ATOM     31  H3  LIG d          36.982  34.627  28.774  0.00  0.00     0.275 HD
ENDBRANCH  22  28
ENDBRANCH  19  22
ENDBRANCH   1  18
TORSDOF 13
ENDMDL
MODEL 2
REMARK VINA RESULT:      -6.3      2.126      6.509
REMARK  13 active torsions:
REMARK  status: ('A' for Active; 'I' for Inactive)
REMARK    1  A    between atoms: C1_2  and  N1_1 
REMARK    2  A    between atoms: C2_3  and  C1_2 
REMARK    3  A    between atoms: C1_2  and  C3_5 
REMARK       I    between atoms: N2_10  and  C2_3 
REMARK    4  A    between atoms: C3_5  and  C4_6 
REMARK    5  A    between atoms: C4_6  and  C5_7 
REMARK    6  A    between atoms: C6_11  and  N2_10 
REMARK    7  A    between atoms: C7_12  and  C6_11 
REMARK    8  A    between atoms: C6_11  and  C8_14 
REMARK       I    between atoms: C7_12  and  N3_18 
REMARK    9  A    between atoms: C8_14  and  C9_15 
REMARK   10  A    between atoms: N3_18  and  C10_19 
REMARK   11  A    between atoms: C10_19  and  C11_20 
REMARK   12  A    between atoms: C10_19  and  C12_22 
REMARK   13  A    between atoms: C12_22  and  C13_23 
ROOT
ATOM      1  C6  LIG d          38.583  35.902  32.630  0.00  0.00     0.186 C 
ENDROOT
BRANCH   1   2
ATOM      2  C7  LIG d          38.572  35.268  31.250  0.00  0.00     0.241 C 
ATOM      3  O4  LIG d          39.621  34.899  30.716  0.00  0.00    -0.271 OA
ATOM      4  N3  LIG d          37.371  35.106  30.703  0.00  0.00    -0.345 N 
ATOM      5  H13 LIG d          36.565  35.423  31.204  0.00  0.00     0.163 HD
BRANCH   4   6
ATOM      6  C10 LIG d          37.189  34.482  29.401  0.00  0.00     0.185 C 
BRANCH   6   7
ATOM      7  C11 LIG d          36.184  35.210  28.527  0.00  0.00     0.196 C 
ATOM      8  O8  LIG d          35.914  36.396  28.806  0.00  0.00    -0.646 OA
ATOM      9  O7  LIG d          35.676  34.586  27.571  0.00  0.00    -0.646 OA
ENDBRANCH   6   7
BRANCH   6  10
ATOM     10  C12 LIG d          36.765  33.033  29.595  0.00  0.00     0.040 C 
BRANCH  10  11
ATOM     11  C13 LIG d          35.890  32.926  30.840  0.00  0.00    -0.020 C 
ATOM     12  C15 LIG d          36.502  31.927  31.811  0.00  0.00     0.009 C 
ATOM     13  C14 LIG d          34.484  32.574  30.459  0.00  0.00     0.009 C 
ENDBRANCH  10  11
ENDBRANCH   6  10
ENDBRANCH   4   6
ENDBRANCH   1   2
BRANCH   1  14
ATOM     14  C8  LIG d          37.237  35.737  33.331  0.00  0.00     0.147 C 
BRANCH  14  15
ATOM     15  C9  LIG d          36.429  37.018  33.316  0.00  0.00     0.175 C 
ATOM     16  O5  LIG d          35.754  37.263  32.299  0.00  0.00    -0.648 OA
ATOM     17  O6  LIG d          36.430  37.756  34.328  0.00  0.00    -0.648 OA
ENDBRANCH  14  15
ENDBRANCH   1  14
BRANCH   1  18
ATOM     18  N2  LIG d          38.898  37.318  32.495  0.00  0.00    -0.345 N 
ATOM     19  C2  LIG d          39.990  37.855  33.025  0.00  0.00     0.249 C 
ATOM     20  O1  LIG d          40.795  37.211  33.706  0.00  0.00    -0.271 OA
ATOM     21  H9  LIG d          38.269  37.906  31.986  0.00  0.00     0.163 HD
BRANCH  19  22
ATOM     22  C1  LIG d          40.173  39.354  32.798  0.00  0.00     0.275 C 
BRANCH  22  23
ATOM     23  C3  LIG d          38.847  40.099  32.971  0.00  0.00     0.053 C 
BRANCH  23  24
ATOM     24  C4  LIG d          38.382  40.828  31.726  0.00  0.00     0.115 C 
BRANCH  24  25
ATOM     25  C5  LIG d          37.333  40.060  30.945  0.00  0.00     0.172 C 
ATOM     26  O2  LIG d          36.147  40.463  30.973  0.00  0.00    -0.648 OA
ATOM     27  O3  LIG d          37.704  39.060  30.290  0.00  0.00    -0.648 OA
ENDBRANCH  24  25
ENDBRANCH  23  24
ENDBRANCH  22  23
BRANCH  22  28
ATOM     28  N1  LIG d          40.743  39.607  31.447  0.00  0.00    -0.066 N 
ATOM     29  H1  LIG d          41.723  39.375  31.446  0.00  0.00     0.275 HD
ATOM     30  H2  LIG d          40.627  40.580  31.211  0.00  0.00     0.275 HD
ATOM     31  H3  LIG d          40.263  39.037  30.767  0.00  0.00     0.275 HD
ENDBRANCH  22  28
ENDBRANCH  19  22
ENDBRANCH   1  18
TORSDOF 13
ENDMDL
MODEL 3
REMARK VINA RESULT:      -6.3      2.186      6.482
REMARK  13 active torsions:
REMARK  status: ('A' for Active; 'I' for Inactive)
REMARK    1  A    between atoms: C1_2  and  N1_1 
REMARK    2  A    between atoms: C2_3  and  C1_2 
REMARK    3  A    between atoms: C1_2  and  C3_5 
REMARK       I    between atoms: N2_10  and  C2_3 
REMARK    4  A    between atoms: C3_5  and  C4_6 
REMARK    5  A    between atoms: C4_6  and  C5_7 
REMARK    6  A    between atoms: C6_11  and  N2_10 
REMARK    7  A    between atoms: C7_12  and  C6_11 
REMARK    8  A    between atoms: C6_11  and  C8_14 
REMARK       I    between atoms: C7_12  and  N3_18 
REMARK    9  A    between atoms: C8_14  and  C9_15 
REMARK   10  A    between atoms: N3_18  and  C10_19 
REMARK   11  A    between atoms: C10_19  and  C11_20 
REMARK   12  A    between atoms: C10_19  and  C12_22 
REMARK   13  A    between atoms: C12_22  and  C13_23 
ROOT
ATOM      1  C6  LIG d          35.963  37.576  30.289  0.00  0.00     0.186 C 
ENDROOT
BRANCH   1   2
ATOM      2  C7  LIG d          35.661  36.187  29.755  0.00  0.00     0.241 C 
ATOM      3  O4  LIG d          35.971  35.872  28.604  0.00  0.00    -0.271 OA
ATOM      4  N3  LIG d          35.098  35.350  30.621  0.00  0.00    -0.345 N 
ATOM      5  H13 LIG d          34.886  35.677  31.542  0.00  0.00     0.163 HD
BRANCH   4   6
ATOM      6  C10 LIG d          34.779  33.973  30.274  0.00  0.00     0.185 C 
BRANCH   6   7
ATOM      7  C11 LIG d          33.309  33.763  29.962  0.00  0.00     0.196 C 
ATOM      8  O8  LIG d          32.540  33.499  30.909  0.00  0.00    -0.646 OA
ATOM      9  O7  LIG d          32.940  33.865  28.772  0.00  0.00    -0.646 OA
ENDBRANCH   6   7
BRANCH   6  10
ATOM     10  C12 LIG d          35.210  33.058  31.411  0.00  0.00     0.040 C 
BRANCH  10  11
ATOM     11  C13 LIG d          36.602  32.508  31.118  0.00  0.00    -0.020 C 
ATOM     12  C15 LIG d          37.621  33.180  32.026  0.00  0.00     0.009 C 
ATOM     13  C14 LIG d          36.930  32.669  29.664  0.00  0.00     0.009 C 
ENDBRANCH  10  11
ENDBRANCH   6  10
ENDBRANCH   4   6
ENDBRANCH   1   2
BRANCH   1  14
ATOM     14  C8  LIG d          36.131  38.585  29.156  0.00  0.00     0.147 C 
BRANCH  14  15
ATOM     15  C9  LIG d          37.578  38.992  28.969  0.00  0.00     0.175 C 
ATOM     16  O5  LIG d          37.968  40.023  29.548  0.00  0.00    -0.648 OA
ATOM     17  O6  LIG d          38.336  38.267  28.285  0.00  0.00    -0.648 OA
ENDBRANCH  14  15
ENDBRANCH   1  14
BRANCH   1  18
ATOM     18  N2  LIG d          37.182  37.520  31.084  0.00  0.00    -0.345 N 
ATOM     19  C2  LIG d          37.164  37.553  32.411  0.00  0.00     0.249 C 
ATOM     20  O1  LIG d          36.125  37.677  33.069  0.00  0.00    -0.271 OA
ATOM     21  H9  LIG d          38.062  37.456  30.615  0.00  0.00     0.163 HD
BRANCH  19  22
ATOM     22  C1  LIG d          38.527  37.490  33.098  0.00  0.00     0.275 C 
BRANCH  22  23
ATOM     23  C3  LIG d          39.660  37.578  32.072  0.00  0.00     0.053 C 
BRANCH  23  24
ATOM     24  C4  LIG d          40.578  36.371  32.062  0.00  0.00     0.115 C 
BRANCH  24  25
ATOM     25  C5  LIG d          40.468  35.551  30.791  0.00  0.00     0.172 C 
ATOM     26  O2  LIG d          39.428  35.650  30.099  0.00  0.00    -0.648 OA
ATOM     27  O3  LIG d          41.433  34.818  30.479  0.00  0.00    -0.648 OA
ENDBRANCH  24  25
ENDBRANCH  23  24
ENDBRANCH  22  23
BRANCH  22  28
ATOM     28  N1  LIG d          38.645  36.244  33.902  0.00  0.00    -0.066 N 
ATOM     29  H1  LIG d          38.629  35.445  33.288  0.00  0.00     0.275 HD
ATOM     30  H2  LIG d          37.872  36.187  34.547  0.00  0.00     0.275 HD
ATOM     31  H3  LIG d          39.512  36.255  34.415  0.00  0.00     0.275 HD
ENDBRANCH  22  28
ENDBRANCH  19  22
ENDBRANCH   1  18
TORSDOF 13
ENDMDL
MODEL 4
REMARK VINA RESULT:      -6.2      2.410      5.852
REMARK  13 active torsions:
REMARK  status: ('A' for Active; 'I' for Inactive)
REMARK    1  A    between atoms: C1_2  and  N1_1 
REMARK    2  A    between atoms: C2_3  and  C1_2 
REMARK    3  A    between atoms: C1_2  and  C3_5 
REMARK       I    between atoms: N2_10  and  C2_3 
REMARK    4  A    between atoms: C3_5  and  C4_6 
REMARK    5  A    between atoms: C4_6  and  C5_7 
REMARK    6  A    between atoms: C6_11  and  N2_10 
REMARK    7  A    between atoms: C7_12  and  C6_11 
REMARK    8  A    between atoms: C6_11  and  C8_14 
REMARK       I    between atoms: C7_12  and  N3_18 
REMARK    9  A    between atoms: C8_14  and  C9_15 
REMARK   10  A    between atoms: N3_18  and  C10_19 
REMARK   11  A    between atoms: C10_19  and  C11_20 
REMARK   12  A    between atoms: C10_19  and  C12_22 
REMARK   13  A    between atoms: C12_22  and  C13_23 
ROOT
ATOM      1  C6  LIG d          40.604  34.808  32.841  0.00  0.00     0.186 C 
ENDROOT
BRANCH   1   2
ATOM      2  C7  LIG d          40.311  34.950  31.358  0.00  0.00     0.241 C 
ATOM      3  O4  LIG d          41.217  34.872  30.525  0.00  0.00    -0.271 OA
ATOM      4  N3  LIG d          39.030  35.110  31.040  0.00  0.00    -0.345 N 
ATOM      5  H13 LIG d          38.351  35.152  31.774  0.00  0.00     0.163 HD
BRANCH   4   6
ATOM      6  C10 LIG d          38.582  35.225  29.661  0.00  0.00     0.185 C 
BRANCH   6   7
ATOM      7  C11 LIG d          38.195  36.642  29.276  0.00  0.00     0.196 C 
ATOM      8  O8  LIG d          37.044  36.836  28.835  0.00  0.00    -0.646 OA
ATOM      9  O7  LIG d          39.047  37.544  29.423  0.00  0.00    -0.646 OA
ENDBRANCH   6   7
BRANCH   6  10
ATOM     10  C12 LIG d          37.409  34.281  29.435  0.00  0.00     0.040 C 
BRANCH  10  11
ATOM     11  C13 LIG d          36.802  33.899  30.781  0.00  0.00    -0.020 C 
ATOM     12  C15 LIG d          36.752  32.383  30.908  0.00  0.00     0.009 C 
ATOM     13  C14 LIG d          35.457  34.537  30.946  0.00  0.00     0.009 C 
ENDBRANCH  10  11
ENDBRANCH   6  10
ENDBRANCH   4   6
ENDBRANCH   1   2
BRANCH   1  14
ATOM     14  C8  LIG d          39.835  33.640  33.454  0.00  0.00     0.147 C 
BRANCH  14  15
ATOM     15  C9  LIG d          38.766  34.109  34.420  0.00  0.00     0.175 C 
ATOM     16  O5  LIG d          39.035  34.082  35.635  0.00  0.00    -0.648 OA
ATOM     17  O6  LIG d          37.681  34.544  33.971  0.00  0.00    -0.648 OA
ENDBRANCH  14  15
ENDBRANCH   1  14
BRANCH   1  18
ATOM     18  N2  LIG d          40.237  36.047  33.514  0.00  0.00    -0.345 N 
ATOM     19  C2  LIG d          41.140  36.945  33.888  0.00  0.00     0.249 C 
ATOM     20  O1  LIG d          42.356  36.782  33.736  0.00  0.00    -0.271 OA
ATOM     21  H9  LIG d          39.271  36.227  33.701  0.00  0.00     0.163 HD
BRANCH  19  22
ATOM     22  C1  LIG d          40.594  38.189  34.586  0.00  0.00     0.275 C 
BRANCH  22  23
ATOM     23  C3  LIG d          39.262  37.886  35.278  0.00  0.00     0.053 C 
BRANCH  23  24
ATOM     24  C4  LIG d          38.090  38.678  34.733  0.00  0.00     0.115 C 
BRANCH  24  25
ATOM     25  C5  LIG d          37.284  37.913  33.701  0.00  0.00     0.172 C 
ATOM     26  O2  LIG d          37.820  37.636  32.603  0.00  0.00    -0.648 OA
ATOM     27  O3  LIG d          36.116  37.576  34.000  0.00  0.00    -0.648 OA
ENDBRANCH  24  25
ENDBRANCH  23  24
ENDBRANCH  22  23
BRANCH  22  28
ATOM     28  N1  LIG d          40.436  39.302  33.611  0.00  0.00    -0.066 N 
ATOM     29  H1  LIG d          39.686  39.906  33.908  0.00  0.00     0.275 HD
ATOM     30  H2  LIG d          40.222  38.923  32.701  0.00  0.00     0.275 HD
ATOM     31  H3  LIG d          41.293  39.830  33.562  0.00  0.00     0.275 HD
ENDBRANCH  22  28
ENDBRANCH  19  22
ENDBRANCH   1  18
TORSDOF 13
ENDMDL
MODEL 5
REMARK VINA RESULT:      -6.1      2.403      6.104
REMARK  13 active torsions:
REMARK  status: ('A' for Active; 'I' for Inactive)
REMARK    1  A    between atoms: C1_2  and  N1_1 
REMARK    2  A    between atoms: C2_3  and  C1_2 
REMARK    3  A    between atoms: C1_2  and  C3_5 
REMARK       I    between atoms: N2_10  and  C2_3 
REMARK    4  A    between atoms: C3_5  and  C4_6 
REMARK    5  A    between atoms: C4_6  and  C5_7 
REMARK    6  A    between atoms: C6_11  and  N2_10 
REMARK    7  A    between atoms: C7_12  and  C6_11 
REMARK    8  A    between atoms: C6_11  and  C8_14 
REMARK       I    between atoms: C7_12  and  N3_18 
REMARK    9  A    between atoms: C8_14  and  C9_15 
REMARK   10  A    between atoms: N3_18  and  C10_19 
REMARK   11  A    between atoms: C10_19  and  C11_20 
REMARK   12  A    between atoms: C10_19  and  C12_22 
REMARK   13  A    between atoms: C12_22  and  C13_23 
ROOT
ATOM      1  C6  LIG d          36.039  37.888  31.323  0.00  0.00     0.186 C 
ENDROOT
BRANCH   1   2
ATOM      2  C7  LIG d          34.989  36.952  30.752  0.00  0.00     0.241 C 
ATOM      3  O4  LIG d          33.853  37.359  30.496  0.00  0.00    -0.271 OA
ATOM      4  N3  LIG d          35.398  35.710  30.513  0.00  0.00    -0.345 N 
ATOM      5  H13 LIG d          36.339  35.459  30.739  0.00  0.00     0.163 HD
BRANCH   4   6
ATOM      6  C10 LIG d          34.521  34.703  29.935  0.00  0.00     0.185 C 
BRANCH   6   7
ATOM      7  C11 LIG d          34.068  33.659  30.939  0.00  0.00     0.196 C 
ATOM      8  O8  LIG d          34.942  32.971  31.505  0.00  0.00    -0.646 OA
ATOM      9  O7  LIG d          32.842  33.541  31.152  0.00  0.00    -0.646 OA
ENDBRANCH   6   7
BRANCH   6  10
ATOM     10  C12 LIG d          35.232  34.033  28.767  0.00  0.00     0.040 C 
BRANCH  10  11
ATOM     11  C13 LIG d          34.584  34.477  27.460  0.00  0.00    -0.020 C 
ATOM     12  C15 LIG d          35.077  35.869  27.091  0.00  0.00     0.009 C 
ATOM     13  C14 LIG d          33.092  34.403  27.566  0.00  0.00     0.009 C 
ENDBRANCH  10  11
ENDBRANCH   6  10
ENDBRANCH   4   6
ENDBRANCH   1   2
BRANCH   1  14
ATOM     14  C8  LIG d          36.765  38.654  30.219  0.00  0.00     0.147 C 
BRANCH  14  15
ATOM     15  C9  LIG d          38.037  37.955  29.786  0.00  0.00     0.175 C 
ATOM     16  O5  LIG d          37.940  37.063  28.923  0.00  0.00    -0.648 OA
ATOM     17  O6  LIG d          39.133  38.320  30.269  0.00  0.00    -0.648 OA
ENDBRANCH  14  15
ENDBRANCH   1  14
BRANCH   1  18
ATOM     18  N2  LIG d          36.998  37.107  32.092  0.00  0.00    -0.345 N 
ATOM     19  C2  LIG d          36.999  37.093  33.420  0.00  0.00     0.249 C 
ATOM     20  O1  LIG d          36.223  37.772  34.101  0.00  0.00    -0.271 OA
ATOM     21  H9  LIG d          37.680  36.562  31.604  0.00  0.00     0.163 HD
BRANCH  19  22
ATOM     22  C1  LIG d          38.072  36.227  34.077  0.00  0.00     0.275 C 
BRANCH  22  23
ATOM     23  C3  LIG d          39.414  36.379  33.357  0.00  0.00     0.053 C 
BRANCH  23  24
ATOM     24  C4  LIG d          39.991  35.074  32.845  0.00  0.00     0.115 C 
BRANCH  24  25
ATOM     25  C5  LIG d          39.753  34.859  31.364  0.00  0.00     0.172 C 
ATOM     26  O2  LIG d          40.737  34.878  30.587  0.00  0.00    -0.648 OA
ATOM     27  O3  LIG d          38.579  34.656  30.980  0.00  0.00    -0.648 OA
ENDBRANCH  24  25
ENDBRANCH  23  24
ENDBRANCH  22  23
BRANCH  22  28
ATOM     28  N1  LIG d          37.646  34.801  34.093  0.00  0.00    -0.066 N 
ATOM     29  H1  LIG d          36.925  34.657  33.405  0.00  0.00     0.275 HD
ATOM     30  H2  LIG d          37.289  34.568  35.007  0.00  0.00     0.275 HD
ATOM     31  H3  LIG d          38.435  34.211  33.880  0.00  0.00     0.275 HD
ENDBRANCH  22  28
ENDBRANCH  19  22
ENDBRANCH   1  18
TORSDOF 13
ENDMDL
MODEL 6
REMARK VINA RESULT:      -6.0      2.273      6.525
REMARK  13 active torsions:
REMARK  status: ('A' for Active; 'I' for Inactive)
REMARK    1  A    between atoms: C1_2  and  N1_1 
REMARK    2  A    between atoms: C2_3  and  C1_2 
REMARK    3  A    between atoms: C1_2  and  C3_5 
REMARK       I    between atoms: N2_10  and  C2_3 
REMARK    4  A    between atoms: C3_5  and  C4_6 
REMARK    5  A    between atoms: C4_6  and  C5_7 
REMARK    6  A    between atoms: C6_11  and  N2_10 
REMARK    7  A    between atoms: C7_12  and  C6_11 
REMARK    8  A    between atoms: C6_11  and  C8_14 
REMARK       I    between atoms: C7_12  and  N3_18 
REMARK    9  A    between atoms: C8_14  and  C9_15 
REMARK   10  A    between atoms: N3_18  and  C10_19 
REMARK   11  A    between atoms: C10_19  and  C11_20 
REMARK   12  A    between atoms: C10_19  and  C12_22 
REMARK   13  A    between atoms: C12_22  and  C13_23 
ROOT
ATOM      1  C6  LIG d          36.330  37.947  31.504  0.00  0.00     0.186 C 
ENDROOT
BRANCH   1   2
ATOM      2  C7  LIG d          36.264  36.594  30.817  0.00  0.00     0.241 C 
ATOM      3  O4  LIG d          37.136  36.251  30.015  0.00  0.00    -0.271 OA
ATOM      4  N3  LIG d          35.248  35.816  31.178  0.00  0.00    -0.345 N 
ATOM      5  H13 LIG d          34.587  36.163  31.843  0.00  0.00     0.163 HD
BRANCH   4   6
ATOM      6  C10 LIG d          35.066  34.478  30.637  0.00  0.00     0.185 C 
BRANCH   6   7
ATOM      7  C11 LIG d          33.653  34.222  30.145  0.00  0.00     0.196 C 
ATOM      8  O8  LIG d          33.359  34.587  28.988  0.00  0.00    -0.646 OA
ATOM      9  O7  LIG d          32.853  33.656  30.922  0.00  0.00    -0.646 OA
ENDBRANCH   6   7
BRANCH   6  10
ATOM     10  C12 LIG d          35.446  33.454  31.697  0.00  0.00     0.040 C 
BRANCH  10  11
ATOM     11  C13 LIG d          36.728  32.743  31.275  0.00  0.00    -0.020 C 
ATOM     12  C15 LIG d          37.913  33.337  32.022  0.00  0.00     0.009 C 
ATOM     13  C14 LIG d          36.892  32.805  29.787  0.00  0.00     0.009 C 
ENDBRANCH  10  11
ENDBRANCH   6  10
ENDBRANCH   4   6
ENDBRANCH   1   2
BRANCH   1  14
ATOM     14  C8  LIG d          36.433  39.084  30.490  0.00  0.00     0.147 C 
BRANCH  14  15
ATOM     15  C9  LIG d          37.714  39.875  30.655  0.00  0.00     0.175 C 
ATOM     16  O5  LIG d          38.699  39.527  29.976  0.00  0.00    -0.648 OA
ATOM     17  O6  LIG d          37.731  40.865  31.422  0.00  0.00    -0.648 OA
ENDBRANCH  14  15
ENDBRANCH   1  14
BRANCH   1  18
ATOM     18  N2  LIG d          37.486  37.969  32.389  0.00  0.00    -0.345 N 
ATOM     19  C2  LIG d          37.367  37.920  33.711  0.00  0.00     0.249 C 
ATOM     20  O1  LIG d          36.276  37.897  34.289  0.00  0.00    -0.271 OA
ATOM     21  H9  LIG d          38.400  38.024  31.988  0.00  0.00     0.163 HD
BRANCH  19  22
ATOM     22  C1  LIG d          38.676  37.958  34.499  0.00  0.00     0.275 C 
BRANCH  22  23
ATOM     23  C3  LIG d          39.432  36.634  34.365  0.00  0.00     0.053 C 
BRANCH  23  24
ATOM     24  C4  LIG d          38.675  35.435  34.903  0.00  0.00     0.115 C 
BRANCH  24  25
ATOM     25  C5  LIG d          39.283  34.869  36.172  0.00  0.00     0.172 C 
ATOM     26  O2  LIG d          39.264  35.567  37.212  0.00  0.00    -0.648 OA
ATOM     27  O3  LIG d          39.768  33.716  36.128  0.00  0.00    -0.648 OA
ENDBRANCH  24  25
ENDBRANCH  23  24
ENDBRANCH  22  23
BRANCH  22  28
ATOM     28  N1  LIG d          38.408  38.266  35.930  0.00  0.00    -0.066 N 
ATOM     29  H1  LIG d          38.855  39.135  36.176  0.00  0.00     0.275 HD
ATOM     30  H2  LIG d          38.773  37.524  36.506  0.00  0.00     0.275 HD
ATOM     31  H3  LIG d          37.414  38.347  36.076  0.00  0.00     0.275 HD
ENDBRANCH  22  28
ENDBRANCH  19  22
ENDBRANCH   1  18
TORSDOF 13
ENDMDL
MODEL 7
REMARK VINA RESULT:      -6.0      3.103      5.153
REMARK  13 active torsions:
REMARK  status: ('A' for Active; 'I' for Inactive)
REMARK    1  A    between atoms: C1_2  and  N1_1 
REMARK    2  A    between atoms: C2_3  and  C1_2 
REMARK    3  A    between atoms: C1_2  and  C3_5 
REMARK       I    between atoms: N2_10  and  C2_3 
REMARK    4  A    between atoms: C3_5  and  C4_6 
REMARK    5  A    between atoms: C4_6  and  C5_7 
REMARK    6  A    between atoms: C6_11  and  N2_10 
REMARK    7  A    between atoms: C7_12  and  C6_11 
REMARK    8  A    between atoms: C6_11  and  C8_14 
REMARK       I    between atoms: C7_12  and  N3_18 
REMARK    9  A    between atoms: C8_14  and  C9_15 
REMARK   10  A    between atoms: N3_18  and  C10_19 
REMARK   11  A    between atoms: C10_19  and  C11_20 
REMARK   12  A    between atoms: C10_19  and  C12_22 
REMARK   13  A    between atoms: C12_22  and  C13_23 
ROOT
ATOM      1  C6  LIG d          40.117  35.264  32.907  0.00  0.00     0.186 C 
ENDROOT
BRANCH   1   2
ATOM      2  C7  LIG d          41.069  35.601  34.041  0.00  0.00     0.241 C 
ATOM      3  O4  LIG d          41.484  34.722  34.800  0.00  0.00    -0.271 OA
ATOM      4  N3  LIG d          41.443  36.875  34.114  0.00  0.00    -0.345 N 
ATOM      5  H13 LIG d          41.070  37.527  33.455  0.00  0.00     0.163 HD
BRANCH   4   6
ATOM      6  C10 LIG d          42.378  37.351  35.123  0.00  0.00     0.185 C 
BRANCH   6   7
ATOM      7  C11 LIG d          41.725  37.598  36.471  0.00  0.00     0.196 C 
ATOM      8  O8  LIG d          40.705  38.315  36.506  0.00  0.00    -0.646 OA
ATOM      9  O7  LIG d          42.240  37.069  37.479  0.00  0.00    -0.646 OA
ENDBRANCH   6   7
BRANCH   6  10
ATOM     10  C12 LIG d          43.047  38.624  34.624  0.00  0.00     0.040 C 
BRANCH  10  11
ATOM     11  C13 LIG d          44.527  38.593  34.988  0.00  0.00    -0.020 C 
ATOM     12  C15 LIG d          44.918  39.902  35.660  0.00  0.00     0.009 C 
ATOM     13  C14 LIG d          45.356  38.297  33.775  0.00  0.00     0.009 C 
ENDBRANCH  10  11
ENDBRANCH   6  10
ENDBRANCH   4   6
ENDBRANCH   1   2
BRANCH   1  14
ATOM     14  C8  LIG d          40.813  35.346  31.550  0.00  0.00     0.147 C 
BRANCH  14  15
ATOM     15  C9  LIG d          40.075  36.254  30.588  0.00  0.00     0.175 C 
ATOM     16  O5  LIG d          39.161  35.752  29.908  0.00  0.00    -0.648 OA
ATOM     17  O6  LIG d          40.372  37.470  30.540  0.00  0.00    -0.648 OA
ENDBRANCH  14  15
ENDBRANCH   1  14
BRANCH   1  18
ATOM     18  N2  LIG d          38.995  36.192  32.942  0.00  0.00    -0.345 N 
ATOM     19  C2  LIG d          37.828  35.872  33.488  0.00  0.00     0.249 C 
ATOM     20  O1  LIG d          37.590  34.757  33.965  0.00  0.00    -0.271 OA
ATOM     21  H9  LIG d          39.107  37.101  32.540  0.00  0.00     0.163 HD
BRANCH  19  22
ATOM     22  C1  LIG d          36.751  36.954  33.440  0.00  0.00     0.275 C 
BRANCH  22  23
ATOM     23  C3  LIG d          36.980  37.901  32.259  0.00  0.00     0.053 C 
BRANCH  23  24
ATOM     24  C4  LIG d          37.232  39.341  32.663  0.00  0.00     0.115 C 
BRANCH  24  25
ATOM     25  C5  LIG d          38.703  39.707  32.671  0.00  0.00     0.172 C 
ATOM     26  O2  LIG d          39.453  39.167  33.516  0.00  0.00    -0.648 OA
ATOM     27  O3  LIG d          39.108  40.529  31.818  0.00  0.00    -0.648 OA
ENDBRANCH  24  25
ENDBRANCH  23  24
ENDBRANCH  22  23
BRANCH  22  28
ATOM     28  N1  LIG d          36.722  37.712  34.721  0.00  0.00    -0.066 N 
ATOM     29  H1  LIG d          37.645  38.062  34.925  0.00  0.00     0.275 HD
ATOM     30  H2  LIG d          36.422  37.102  35.465  0.00  0.00     0.275 HD
ATOM     31  H3  LIG d          36.081  38.485  34.640  0.00  0.00     0.275 HD
ENDBRANCH  22  28
ENDBRANCH  19  22
ENDBRANCH   1  18
TORSDOF 13
ENDMDL
MODEL 8
REMARK VINA RESULT:      -6.0      1.670      2.261
REMARK  13 active torsions:
REMARK  status: ('A' for Active; 'I' for Inactive)
REMARK    1  A    between atoms: C1_2  and  N1_1 
REMARK    2  A    between atoms: C2_3  and  C1_2 
REMARK    3  A    between atoms: C1_2  and  C3_5 
REMARK       I    between atoms: N2_10  and  C2_3 
REMARK    4  A    between atoms: C3_5  and  C4_6 
REMARK    5  A    between atoms: C4_6  and  C5_7 
REMARK    6  A    between atoms: C6_11  and  N2_10 
REMARK    7  A    between atoms: C7_12  and  C6_11 
REMARK    8  A    between atoms: C6_11  and  C8_14 
REMARK       I    between atoms: C7_12  and  N3_18 
REMARK    9  A    between atoms: C8_14  and  C9_15 
REMARK   10  A    between atoms: N3_18  and  C10_19 
REMARK   11  A    between atoms: C10_19  and  C11_20 
REMARK   12  A    between atoms: C10_19  and  C12_22 
REMARK   13  A    between atoms: C12_22  and  C13_23 
ROOT
ATOM      1  C6  LIG d          38.979  35.796  32.780  0.00  0.00     0.186 C 
ENDROOT
BRANCH   1   2
ATOM      2  C7  LIG d          38.176  37.076  32.924  0.00  0.00     0.241 C 
ATOM      3  O4  LIG d          37.385  37.223  33.859  0.00  0.00    -0.271 OA
ATOM      4  N3  LIG d          38.424  38.015  32.016  0.00  0.00    -0.345 N 
ATOM      5  H13 LIG d          39.089  37.825  31.293  0.00  0.00     0.163 HD
BRANCH   4   6
ATOM      6  C10 LIG d          37.762  39.311  32.039  0.00  0.00     0.185 C 
BRANCH   6   7
ATOM      7  C11 LIG d          36.468  39.332  31.247  0.00  0.00     0.196 C 
ATOM      8  O8  LIG d          36.539  39.486  30.010  0.00  0.00    -0.646 OA
ATOM      9  O7  LIG d          35.394  39.192  31.871  0.00  0.00    -0.646 OA
ENDBRANCH   6   7
BRANCH   6  10
ATOM     10  C12 LIG d          38.718  40.371  31.509  0.00  0.00     0.040 C 
BRANCH  10  11
ATOM     11  C13 LIG d          39.946  39.691  30.913  0.00  0.00    -0.020 C 
ATOM     12  C15 LIG d          41.197  40.162  31.640  0.00  0.00     0.009 C 
ATOM     13  C14 LIG d          40.010  39.935  29.436  0.00  0.00     0.009 C 
ENDBRANCH  10  11
ENDBRANCH   6  10
ENDBRANCH   4   6
ENDBRANCH   1   2
BRANCH   1  14
ATOM     14  C8  LIG d          40.394  36.079  32.279  0.00  0.00     0.147 C 
BRANCH  14  15
ATOM     15  C9  LIG d          40.571  35.683  30.827  0.00  0.00     0.175 C 
ATOM     16  O5  LIG d          39.953  36.341  29.970  0.00  0.00    -0.648 OA
ATOM     17  O6  LIG d          41.355  34.751  30.536  0.00  0.00    -0.648 OA
ENDBRANCH  14  15
ENDBRANCH   1  14
BRANCH   1  18
ATOM     18  N2  LIG d          38.293  34.913  31.846  0.00  0.00    -0.345 N 
ATOM     19  C2  LIG d          38.027  33.645  32.136  0.00  0.00     0.249 C 
ATOM     20  O1  LIG d          38.377  33.107  33.192  0.00  0.00    -0.271 OA
ATOM     21  H9  LIG d          38.014  35.274  30.956  0.00  0.00     0.163 HD
BRANCH  19  22
ATOM     22  C1  LIG d          37.306  32.851  31.048  0.00  0.00     0.275 C 
BRANCH  22  23
ATOM     23  C3  LIG d          36.852  33.769  29.911  0.00  0.00     0.053 C 
BRANCH  23  24
ATOM     24  C4  LIG d          35.348  33.844  29.742  0.00  0.00     0.115 C 
BRANCH  24  25
ATOM     25  C5  LIG d          34.748  35.113  30.315  0.00  0.00     0.172 C 
ATOM     26  O2  LIG d          33.522  35.323  30.160  0.00  0.00    -0.648 OA
ATOM     27  O3  LIG d          35.506  35.893  30.935  0.00  0.00    -0.648 OA
ENDBRANCH  24  25
ENDBRANCH  23  24
ENDBRANCH  22  23
BRANCH  22  28
ATOM     28  N1  LIG d          36.146  32.120  31.625  0.00  0.00    -0.066 N 
ATOM     29  H1  LIG d          36.249  31.133  31.449  0.00  0.00     0.275 HD
ATOM     30  H2  LIG d          35.295  32.451  31.198  0.00  0.00     0.275 HD
ATOM     31  H3  LIG d          36.108  32.280  32.620  0.00  0.00     0.275 HD
ENDBRANCH  22  28
ENDBRANCH  19  22
ENDBRANCH   1  18
TORSDOF 13
ENDMDL
MODEL 9
REMARK VINA RESULT:      -5.9      2.314      6.849
REMARK  13 active torsions:
REMARK  status: ('A' for Active; 'I' for Inactive)
REMARK    1  A    between atoms: C1_2  and  N1_1 
REMARK    2  A    between atoms: C2_3  and  C1_2 
REMARK    3  A    between atoms: C1_2  and  C3_5 
REMARK       I    between atoms: N2_10  and  C2_3 
REMARK    4  A    between atoms: C3_5  and  C4_6 
REMARK    5  A    between atoms: C4_6  and  C5_7 
REMARK    6  A    between atoms: C6_11  and  N2_10 
REMARK    7  A    between atoms: C7_12  and  C6_11 
REMARK    8  A    between atoms: C6_11  and  C8_14 
REMARK       I    between atoms: C7_12  and  N3_18 
REMARK    9  A    between atoms: C8_14  and  C9_15 
REMARK   10  A    between atoms: N3_18  and  C10_19 
REMARK   11  A    between atoms: C10_19  and  C11_20 
REMARK   12  A    between atoms: C10_19  and  C12_22 
REMARK   13  A    between atoms: C12_22  and  C13_23 
ROOT
ATOM      1  C6  LIG d          36.071  37.237  32.238  0.00  0.00     0.186 C 
ENDROOT
BRANCH   1   2
ATOM      2  C7  LIG d          35.904  35.856  31.629  0.00  0.00     0.241 C 
ATOM      3  O4  LIG d          36.262  34.848  32.243  0.00  0.00    -0.271 OA
ATOM      4  N3  LIG d          35.315  35.823  30.437  0.00  0.00    -0.345 N 
ATOM      5  H13 LIG d          35.044  36.684  30.008  0.00  0.00     0.163 HD
BRANCH   4   6
ATOM      6  C10 LIG d          35.051  34.574  29.737  0.00  0.00     0.185 C 
BRANCH   6   7
ATOM      7  C11 LIG d          35.993  34.334  28.572  0.00  0.00     0.196 C 
ATOM      8  O8  LIG d          35.556  34.516  27.417  0.00  0.00    -0.646 OA
ATOM      9  O7  LIG d          37.161  33.968  28.825  0.00  0.00    -0.646 OA
ENDBRANCH   6   7
BRANCH   6  10
ATOM     10  C12 LIG d          33.607  34.567  29.255  0.00  0.00     0.040 C 
BRANCH  10  11
ATOM     11  C13 LIG d          32.838  33.468  29.980  0.00  0.00    -0.020 C 
ATOM     12  C15 LIG d          33.812  32.428  30.516  0.00  0.00     0.009 C 
ATOM     13  C14 LIG d          31.800  32.875  29.077  0.00  0.00     0.009 C 
ENDBRANCH  10  11
ENDBRANCH   6  10
ENDBRANCH   4   6
ENDBRANCH   1   2
BRANCH   1  14
ATOM     14  C8  LIG d          35.537  38.325  31.310  0.00  0.00     0.147 C 
BRANCH  14  15
ATOM     15  C9  LIG d          36.648  39.009  30.540  0.00  0.00     0.175 C 
ATOM     16  O5  LIG d          37.055  40.106  30.967  0.00  0.00    -0.648 OA
ATOM     17  O6  LIG d          37.144  38.440  29.541  0.00  0.00    -0.648 OA
ENDBRANCH  14  15
ENDBRANCH   1  14
BRANCH   1  18
ATOM     18  N2  LIG d          37.485  37.467  32.504  0.00  0.00    -0.345 N 
ATOM     19  C2  LIG d          37.952  37.661  33.731  0.00  0.00     0.249 C 
ATOM     20  O1  LIG d          37.225  37.708  34.730  0.00  0.00    -0.271 OA
ATOM     21  H9  LIG d          38.125  37.478  31.736  0.00  0.00     0.163 HD
BRANCH  19  22
ATOM     22  C1  LIG d          39.458  37.893  33.842  0.00  0.00     0.275 C 
BRANCH  22  23
ATOM     23  C3  LIG d          40.232  36.608  33.535  0.00  0.00     0.053 C 
BRANCH  23  24
ATOM     24  C4  LIG d          41.055  36.673  32.263  0.00  0.00     0.115 C 
BRANCH  24  25
ATOM     25  C5  LIG d          40.554  35.734  31.183  0.00  0.00     0.172 C 
ATOM     26  O2  LIG d          39.370  35.846  30.789  0.00  0.00    -0.648 OA
ATOM     27  O3  LIG d          41.356  34.893  30.718  0.00  0.00    -0.648 OA
ENDBRANCH  24  25
ENDBRANCH  23  24
ENDBRANCH  22  23
BRANCH  22  28
ATOM     28  N1  LIG d          39.804  38.401  35.197  0.00  0.00    -0.066 N 
ATOM     29  H1  LIG d          40.316  37.694  35.700  0.00  0.00     0.275 HD
ATOM     30  H2  LIG d          38.958  38.625  35.697  0.00  0.00     0.275 HD
ATOM     31  H3  LIG d          40.373  39.229  35.110  0.00  0.00     0.275 HD
ENDBRANCH  22  28
ENDBRANCH  19  22
ENDBRANCH   1  18
TORSDOF 13
ENDMDL
