@<TRIPOS>MOLECULE
ZINC000097231848
41    43    1     0     0
SMALL
USER_CHARGES
@<TRIPOS>ATOM
      1 C1          0.0396    0.6774   -0.0050 C.3       1 LIG      -0.1400
      2 C2          0.1066   -0.7996    0.3883 C.3       1 LIG      -0.1800
      3 H3          0.5461   -1.3733   -0.4276 H         1 LIG       0.0700
      4 C4          0.9684   -0.9547    1.6430 C.3       1 LIG       0.1100
      5 N5          2.2663   -0.3107    1.4265 N.am      1 LIG      -0.5700
      6 C6          2.4992    0.9200    1.9241 C.2       1 LIG       0.6000
      7 O7          3.5875    1.4411    1.7729 O.2       1 LIG      -0.5500
      8 C8          1.4347    1.6344    2.6517 C.2       1 LIG      -0.2700
      9 C9          1.6011    2.7165    3.4935 C.2       1 LIG       0.1200
     10 N10         0.3836    3.0628    3.9481 N.pl3     1 LIG      -0.3200
     11 C11         0.1076    4.1169    4.8315 C.ar      1 LIG       0.1200
     12 C12         1.1399    4.9116    5.3092 C.ar      1 LIG      -0.0900
     13 C13         0.8664    5.9497    6.1788 C.ar      1 LIG      -0.1400
     14 C14        -0.4369    6.1981    6.5750 C.ar      1 LIG       0.1200
     15 F15        -0.7011    7.2137    7.4259 F         1 LIG      -0.1300
     16 C16        -1.4700    5.4075    6.1002 C.ar      1 LIG      -0.1700
     17 C17        -1.2018    4.3707    5.2255 C.ar      1 LIG       0.1400
     18 F18        -2.2092    3.5991    4.7619 F         1 LIG      -0.1000
     19 N19        -0.5613    2.1942    3.3905 N.2       1 LIG      -0.2800
     20 C20         0.0523    1.3442    2.6134 C.2       1 LIG       0.0800
     21 C21         3.3111   -1.0043    0.6692 C.3       1 LIG       0.0800
     22 C22         4.4746   -0.1644    0.1384 C.3       1 LIG      -0.1900
     23 C23         4.6937   -1.1183    1.3144 C.3       1 LIG      -0.1900
     24 C24        -1.2840   -1.3085    0.6681 C.2       1 LIG       0.5000
     25 O25        -2.1329   -1.2748   -0.2064 O.co2     1 LIG      -0.6900
     26 O26        -1.5602   -1.7540    1.7689 O.co2     1 LIG      -0.6900
     27 H27         1.0175    1.1367    0.1399 H         1 LIG       0.0500
     28 H28        -0.2498    0.7617   -1.0525 H         1 LIG       0.0600
     29 H29        -0.6965    1.1862    0.6174 H         1 LIG       0.0600
     30 H30         0.4664   -0.4853    2.4889 H         1 LIG       0.1000
     31 H31         1.1188   -2.0139    1.8518 H         1 LIG       0.0800
     32 H32         2.5365    3.1961    3.7411 H         1 LIG       0.1900
     33 H33         2.1570    4.7185    5.0015 H         1 LIG       0.1500
     34 H34         1.6702    6.5680    6.5503 H         1 LIG       0.1500
     35 H35        -2.4859    5.6031    6.4102 H         1 LIG       0.1600
     36 H36        -0.4142    0.5526    2.0459 H         1 LIG       0.2400
     37 H37         2.9715   -1.8390    0.0559 H         1 LIG       0.1300
     38 H38         4.9006   -0.4464   -0.8244 H         1 LIG       0.0800
     39 H39         4.4627    0.9042    0.3527 H         1 LIG       0.1400
     40 H40         4.8260   -0.6772    2.3024 H         1 LIG       0.0900
     41 H41         5.2639   -2.0278    1.1252 H         1 LIG       0.0900
@<TRIPOS>BOND
1     1     2     1
2     1     27    1
3     1     28    1
4     1     29    1
5     2     3     1
6     2     4     1
7     2     24    1
8     4     5     1
9     4     30    1
10    4     31    1
11    5     6     am
12    5     21    1
13    6     7     2
14    6     8     1
15    8     20    1
16    8     9     2
17    9     10    1
18    9     32    1
19    10    11    1
20    10    19    1
21    11    17    ar
22    11    12    ar
23    12    13    ar
24    12    33    1
25    13    14    ar
26    13    34    1
27    14    15    1
28    14    16    ar
29    16    17    ar
30    16    35    1
31    17    18    1
32    19    20    2
33    20    36    1
34    21    23    1
35    21    22    1
36    21    37    1
37    22    23    1
38    22    38    1
39    22    39    1
40    23    40    1
41    23    41    1
42    24    25    ar
43    24    26    ar
