@<TRIPOS>MOLECULE
1a30 ligand
   49    48     1     0     0
SMALL
GAST_HUCK

@<TRIPOS>ATOM
      1 N1         38.4080   38.2660   35.9300 N.4       1 LIG         0.2380
      2 C1         38.6760   37.9580   34.4990 C.3       1 LIG         0.0665
      3 C2         37.3670   37.9200   33.7110 C.2       1 LIG         0.2269
      4 O1         36.2760   37.8970   34.2890 O.2       1 LIG        -0.3907
      5 C3         39.4320   36.6340   34.3650 C.3       1 LIG         0.0194
      6 C4         38.6750   35.4350   34.9030 C.3       1 LIG         0.0075
      7 C5         39.2830   34.8690   36.1720 C.2       1 LIG         0.0351
      8 O2         39.2640   35.5670   37.2120 O.co2     1 LIG        -0.5690
      9 O3         39.7680   33.7160   36.1280 O.co2     1 LIG        -0.5690
     10 N2         37.4860   37.9690   32.3890 N.am      1 LIG        -0.2595
     11 C6         36.3300   37.9470   31.5040 C.3       1 LIG         0.1424
     12 C7         36.2640   36.5940   30.8170 C.2       1 LIG         0.2051
     13 O4         37.1360   36.2510   30.0150 O.2       1 LIG        -0.3943
     14 C8         36.4330   39.0840   30.4900 C.3       1 LIG         0.0406
     15 C9         37.7140   39.8750   30.6550 C.2       1 LIG         0.0393
     16 O5         38.6990   39.5270   29.9760 O.co2     1 LIG        -0.5688
     17 O6         37.7310   40.8650   31.4220 O.co2     1 LIG        -0.5688
     18 N3         35.2480   35.8160   31.1780 N.am      1 LIG        -0.2694
     19 C10        35.0660   34.4780   30.6370 C.3       1 LIG         0.0946
     20 C11        33.6530   34.2220   30.1450 C.2       1 LIG         0.0601
     21 O7         32.8530   33.6560   30.9220 O.co2     1 LIG        -0.5666
     22 C12        35.4460   33.4540   31.6970 C.3       1 LIG        -0.0156
     23 C13        36.7280   32.7430   31.2750 C.3       1 LIG        -0.0431
     24 C14        36.8920   32.8050   29.7870 C.3       1 LIG        -0.0625
     25 C15        37.9130   33.3370   32.0220 C.3       1 LIG        -0.0625
     26 O8         33.3590   34.5870   28.9880 O.co2     1 LIG        -0.5666
     27 H1         39.2816   38.2914   36.4559 H         1 LIG         0.2015
     28 H2         37.7360   37.6171   36.3395 H         1 LIG         0.2015
     29 H3         37.8724   39.1271   36.0401 H         1 LIG         0.2015
     30 H4         39.3143   38.7701   34.0793 H         1 LIG         0.1099
     31 H5         40.4379   36.7076   34.8403 H         1 LIG         0.0363
     32 H6         39.7362   36.4622   33.3062 H         1 LIG         0.0363
     33 H7         38.5758   34.6446   34.1228 H         1 LIG         0.0434
     34 H8         37.5976   35.6797   35.0531 H         1 LIG         0.0434
     35 H9         38.4188   38.0239   31.9799 H         1 LIG         0.1886
     36 H10        35.4065   38.0884   32.1126 H         1 LIG         0.0819
     37 H11        35.5384   39.7481   30.5339 H         1 LIG         0.0478
     38 H12        36.3211   38.7075   29.4465 H         1 LIG         0.0478
     39 H13        34.5737   36.1692   31.8570 H         1 LIG         0.1875
     40 H14        35.7607   34.3563   29.7734 H         1 LIG         0.0726
     41 H15        34.6172   32.7394   31.9104 H         1 LIG         0.0308
     42 H16        35.5290   33.9077   32.7121 H         1 LIG         0.0308
     43 H17        36.6392   31.6707   31.5672 H         1 LIG         0.0297
     44 H18        37.8290   32.2853   29.4786 H         1 LIG         0.0232
     45 H19        36.8537   33.8529   29.4079 H         1 LIG         0.0232
     46 H20        35.9991   32.4037   29.2533 H         1 LIG         0.0232
     47 H21        38.8500   32.8173   31.7136 H         1 LIG         0.0232
     48 H22        37.7658   33.3169   33.1271 H         1 LIG         0.0232
     49 H23        37.9822   34.4419   31.8892 H         1 LIG         0.0232
@<TRIPOS>BOND
     1    3    2 1  
     2    2    5 1  
     3    2    1 1  
     4    5    6 1  
     5    6    7 1  
     6    7    8 ar 
     7    7    9 ar 
     8    3    4 2  
     9   12   11 1  
    10   11   14 1  
    11   11   10 1  
    12   14   15 1  
    13   15   16 ar 
    14   15   17 ar 
    15   12   13 2  
    16   19   20 1  
    17   19   22 1  
    18   18   19 1  
    19   22   23 1  
    20   23   25 1  
    21   23   24 1  
    22   20   26 ar 
    23   20   21 ar 
    24   10    3 am 
    25   12   18 am 
    26    1   27 1  
    27    1   28 1  
    28    1   29 1  
    29    2   30 1  
    30    5   31 1  
    31    5   32 1  
    32    6   33 1  
    33    6   34 1  
    34   10   35 1  
    35   11   36 1  
    36   14   37 1  
    37   14   38 1  
    38   18   39 1  
    39   19   40 1  
    40   22   41 1  
    41   22   42 1  
    42   23   43 1  
    43   24   44 1  
    44   24   45 1  
    45   24   46 1  
    46   25   47 1  
    47   25   48 1  
    48   25   49 1  
@<TRIPOS>SUBSTRUCTURE
     1 LIG         1

