@<TRIPOS>MOLECULE
1a30 ligand
   49    48     1     0     0
SMALL
GAST_HUCK

@<TRIPOS>ATOM
      1 N1         40.7430   39.6070   31.4470 N.4       1 LIG         0.2380
      2 C1         40.1730   39.3540   32.7980 C.3       1 LIG         0.0665
      3 C2         39.9900   37.8550   33.0250 C.2       1 LIG         0.2269
      4 O1         40.7950   37.2110   33.7060 O.2       1 LIG        -0.3907
      5 C3         38.8470   40.0990   32.9710 C.3       1 LIG         0.0194
      6 C4         38.3820   40.8280   31.7260 C.3       1 LIG         0.0075
      7 C5         37.3330   40.0600   30.9450 C.2       1 LIG         0.0351
      8 O2         36.1470   40.4630   30.9730 O.co2     1 LIG        -0.5690
      9 O3         37.7040   39.0600   30.2900 O.co2     1 LIG        -0.5690
     10 N2         38.8980   37.3180   32.4950 N.am      1 LIG        -0.2595
     11 C6         38.5830   35.9020   32.6300 C.3       1 LIG         0.1424
     12 C7         38.5720   35.2680   31.2500 C.2       1 LIG         0.2051
     13 O4         39.6210   34.8990   30.7160 O.2       1 LIG        -0.3943
     14 C8         37.2370   35.7370   33.3310 C.3       1 LIG         0.0406
     15 C9         36.4290   37.0180   33.3160 C.2       1 LIG         0.0393
     16 O5         35.7540   37.2630   32.2990 O.co2     1 LIG        -0.5688
     17 O6         36.4300   37.7560   34.3280 O.co2     1 LIG        -0.5688
     18 N3         37.3710   35.1060   30.7030 N.am      1 LIG        -0.2694
     19 C10        37.1890   34.4820   29.4010 C.3       1 LIG         0.0946
     20 C11        36.1840   35.2100   28.5270 C.2       1 LIG         0.0601
     21 O7         35.6760   34.5860   27.5710 O.co2     1 LIG        -0.5666
     22 C12        36.7650   33.0330   29.5950 C.3       1 LIG        -0.0156
     23 C13        35.8900   32.9260   30.8400 C.3       1 LIG        -0.0431
     24 C14        34.4840   32.5740   30.4590 C.3       1 LIG        -0.0625
     25 C15        36.5020   31.9270   31.8110 C.3       1 LIG        -0.0625
     26 O8         35.9140   36.3960   28.8060 O.co2     1 LIG        -0.5666
     27 H1         40.8652   40.6082   31.2954 H         1 LIG         0.2015
     28 H2         40.1826   39.1767   30.7113 H         1 LIG         0.2015
     29 H3         41.6102   39.0912   31.2976 H         1 LIG         0.2015
     30 H4         40.8920   39.7380   33.5588 H         1 LIG         0.1099
     31 H5         38.9016   40.7991   33.8371 H         1 LIG         0.0363
     32 H6         38.0540   39.4065   33.3381 H         1 LIG         0.0363
     33 H7         39.2469   41.0942   31.0747 H         1 LIG         0.0434
     34 H8         38.0202   41.8524   31.9768 H         1 LIG         0.0434
     35 H9         38.2571   37.9175   31.9751 H         1 LIG         0.1886
     36 H10        39.3735   35.4131   33.2459 H         1 LIG         0.0819
     37 H11        37.3660   35.3521   34.3695 H         1 LIG         0.0478
     38 H12        36.6574   34.8879   32.8995 H         1 LIG         0.0478
     39 H13        36.5494   35.4301   31.2132 H         1 LIG         0.1875
     40 H14        38.1721   34.4870   28.8749 H         1 LIG         0.0726
     41 H15        37.6368   32.3387   29.6303 H         1 LIG         0.0308
     42 H16        36.2657   32.6141   28.6903 H         1 LIG         0.0308
     43 H17        35.8733   33.9241   31.3368 H         1 LIG         0.0297
     44 H18        33.8444   32.4958   31.3690 H         1 LIG         0.0232
     45 H19        34.4405   31.6481   29.8394 H         1 LIG         0.0232
     46 H20        34.0631   33.2901   29.7152 H         1 LIG         0.0232
     47 H21        35.8624   31.8488   32.7210 H         1 LIG         0.0232
     48 H22        37.5594   32.1774   32.0607 H         1 LIG         0.0232
     49 H23        36.6801   30.9341   31.3359 H         1 LIG         0.0232
@<TRIPOS>BOND
     1    3    2 1  
     2    2    5 1  
     3    2    1 1  
     4    5    6 1  
     5    6    7 1  
     6    7    8 ar 
     7    7    9 ar 
     8    3    4 2  
     9   12   11 1  
    10   11   14 1  
    11   11   10 1  
    12   14   15 1  
    13   15   16 ar 
    14   15   17 ar 
    15   12   13 2  
    16   19   20 1  
    17   19   22 1  
    18   18   19 1  
    19   22   23 1  
    20   23   25 1  
    21   23   24 1  
    22   20   26 ar 
    23   20   21 ar 
    24   10    3 am 
    25   12   18 am 
    26    1   27 1  
    27    1   28 1  
    28    1   29 1  
    29    2   30 1  
    30    5   31 1  
    31    5   32 1  
    32    6   33 1  
    33    6   34 1  
    34   10   35 1  
    35   11   36 1  
    36   14   37 1  
    37   14   38 1  
    38   18   39 1  
    39   19   40 1  
    40   22   41 1  
    41   22   42 1  
    42   23   43 1  
    43   24   44 1  
    44   24   45 1  
    45   24   46 1  
    46   25   47 1  
    47   25   48 1  
    48   25   49 1  
@<TRIPOS>SUBSTRUCTURE
     1 LIG         1

