@<TRIPOS>MOLECULE
1a30 ligand
   49    48     1     0     0
SMALL
GAST_HUCK

@<TRIPOS>ATOM
      1 N1         36.1460   32.1200   31.6250 N.4       1 LIG         0.2380
      2 C1         37.3060   32.8510   31.0480 C.3       1 LIG         0.0665
      3 C2         38.0270   33.6450   32.1360 C.2       1 LIG         0.2269
      4 O1         38.3770   33.1070   33.1920 O.2       1 LIG        -0.3907
      5 C3         36.8520   33.7690   29.9110 C.3       1 LIG         0.0194
      6 C4         35.3480   33.8440   29.7420 C.3       1 LIG         0.0075
      7 C5         34.7480   35.1130   30.3150 C.2       1 LIG         0.0351
      8 O2         33.5220   35.3230   30.1600 O.co2     1 LIG        -0.5690
      9 O3         35.5060   35.8930   30.9350 O.co2     1 LIG        -0.5690
     10 N2         38.2930   34.9130   31.8460 N.am      1 LIG        -0.2595
     11 C6         38.9790   35.7960   32.7800 C.3       1 LIG         0.1424
     12 C7         38.1760   37.0760   32.9240 C.2       1 LIG         0.2051
     13 O4         37.3850   37.2230   33.8590 O.2       1 LIG        -0.3943
     14 C8         40.3940   36.0790   32.2790 C.3       1 LIG         0.0406
     15 C9         40.5710   35.6830   30.8270 C.2       1 LIG         0.0393
     16 O5         39.9530   36.3410   29.9700 O.co2     1 LIG        -0.5688
     17 O6         41.3550   34.7510   30.5360 O.co2     1 LIG        -0.5688
     18 N3         38.4240   38.0150   32.0160 N.am      1 LIG        -0.2694
     19 C10        37.7620   39.3110   32.0390 C.3       1 LIG         0.0946
     20 C11        36.4680   39.3320   31.2470 C.2       1 LIG         0.0601
     21 O7         35.3940   39.1920   31.8710 O.co2     1 LIG        -0.5666
     22 C12        38.7180   40.3710   31.5090 C.3       1 LIG        -0.0156
     23 C13        39.9460   39.6910   30.9130 C.3       1 LIG        -0.0431
     24 C14        40.0100   39.9350   29.4360 C.3       1 LIG        -0.0625
     25 C15        41.1970   40.1620   31.6400 C.3       1 LIG        -0.0625
     26 O8         36.5390   39.4860   30.0100 O.co2     1 LIG        -0.5666
     27 H1         35.6646   31.5899   30.8986 H         1 LIG         0.2015
     28 H2         35.5122   32.7449   32.1231 H         1 LIG         0.2015
     29 H3         36.4211   31.5281   32.4088 H         1 LIG         0.2015
     30 H4         38.0189   32.1024   30.6302 H         1 LIG         0.1099
     31 H5         37.3393   33.4748   28.9522 H         1 LIG         0.0363
     32 H6         37.2831   34.7896   30.0363 H         1 LIG         0.0363
     33 H7         34.8542   32.9415   30.1720 H         1 LIG         0.0434
     34 H8         35.0614   33.7168   28.6720 H         1 LIG         0.0434
     35 H9         38.0075   35.2814   30.9387 H         1 LIG         0.1886
     36 H10        39.0407   35.2939   33.7737 H         1 LIG         0.0819
     37 H11        41.1583   35.5910   32.9278 H         1 LIG         0.0478
     38 H12        40.6768   37.1446   32.4454 H         1 LIG         0.0478
     39 H13        39.1011   37.8206   31.2783 H         1 LIG         0.1875
     40 H14        37.5231   39.5591   33.0995 H         1 LIG         0.0726
     41 H15        38.9875   41.1233   32.2866 H         1 LIG         0.0308
     42 H16        38.2244   41.0610   30.7854 H         1 LIG         0.0308
     43 H17        39.8452   38.5927   31.0768 H         1 LIG         0.0297
     44 H18        40.9079   39.4378   29.0002 H         1 LIG         0.0232
     45 H19        39.9776   41.0226   29.1924 H         1 LIG         0.0232
     46 H20        39.0712   39.6228   28.9219 H         1 LIG         0.0232
     47 H21        42.0949   39.6648   31.2042 H         1 LIG         0.0232
     48 H22        41.1252   40.0080   32.7420 H         1 LIG         0.0232
     49 H23        41.2902   41.2731   31.6385 H         1 LIG         0.0232
@<TRIPOS>BOND
     1    3    2 1  
     2    2    5 1  
     3    2    1 1  
     4    5    6 1  
     5    6    7 1  
     6    7    8 ar 
     7    7    9 ar 
     8    3    4 2  
     9   12   11 1  
    10   11   14 1  
    11   11   10 1  
    12   14   15 1  
    13   15   16 ar 
    14   15   17 ar 
    15   12   13 2  
    16   19   20 1  
    17   19   22 1  
    18   18   19 1  
    19   22   23 1  
    20   23   25 1  
    21   23   24 1  
    22   20   26 ar 
    23   20   21 ar 
    24   10    3 am 
    25   12   18 am 
    26    1   27 1  
    27    1   28 1  
    28    1   29 1  
    29    2   30 1  
    30    5   31 1  
    31    5   32 1  
    32    6   33 1  
    33    6   34 1  
    34   10   35 1  
    35   11   36 1  
    36   14   37 1  
    37   14   38 1  
    38   18   39 1  
    39   19   40 1  
    40   22   41 1  
    41   22   42 1  
    42   23   43 1  
    43   24   44 1  
    44   24   45 1  
    45   24   46 1  
    46   25   47 1  
    47   25   48 1  
    48   25   49 1  
@<TRIPOS>SUBSTRUCTURE
     1 LIG         1

