@<TRIPOS>MOLECULE
1a30 ligand
   49    48     1     0     0
SMALL
GAST_HUCK

@<TRIPOS>ATOM
      1 N1         37.5180   34.0440   29.3980 N.4       1 LIG         0.2380
      2 C1         36.8230   33.9520   30.7110 C.3       1 LIG         0.0665
      3 C2         37.8420   33.9160   31.8490 C.2       1 LIG         0.2269
      4 O1         38.0210   32.8880   32.5120 O.2       1 LIG        -0.3907
      5 C3         35.9130   32.7220   30.7540 C.3       1 LIG         0.0194
      6 C4         34.6780   32.8980   31.6150 C.3       1 LIG         0.0075
      7 C5         33.4540   33.3130   30.8210 C.2       1 LIG         0.0351
      8 O2         32.5830   32.4500   30.5650 O.co2     1 LIG        -0.5690
      9 O3         33.3610   34.5100   30.4680 O.co2     1 LIG        -0.5690
     10 N2         38.5440   35.0280   32.0330 N.am      1 LIG        -0.2595
     11 C6         39.5550   35.1450   33.0750 C.3       1 LIG         0.1424
     12 C7         39.1490   36.2540   34.0290 C.2       1 LIG         0.2051
     13 O4         39.0890   36.0510   35.2440 O.2       1 LIG        -0.3943
     14 C8         40.9170   35.4230   32.4430 C.3       1 LIG         0.0406
     15 C9         40.8170   35.6270   30.9450 C.2       1 LIG         0.0393
     16 O5         41.2360   34.7150   30.2090 O.co2     1 LIG        -0.5688
     17 O6         40.2840   36.6700   30.5020 O.co2     1 LIG        -0.5688
     18 N3         38.9190   37.4380   33.4680 N.am      1 LIG        -0.2694
     19 C10        38.5550   38.6090   34.2510 C.3       1 LIG         0.0946
     20 C11        37.0760   38.6630   34.5900 C.2       1 LIG         0.0601
     21 O7         36.2730   38.1140   33.8060 O.co2     1 LIG        -0.5666
     22 C12        38.9660   39.8640   33.4940 C.3       1 LIG        -0.0156
     23 C13        39.2050   39.5150   32.0290 C.3       1 LIG        -0.0431
     24 C14        38.0990   40.0580   31.1770 C.3       1 LIG        -0.0625
     25 C15        40.5760   40.0160   31.6000 C.3       1 LIG        -0.0625
     26 O8         36.7350   39.2560   35.6340 O.co2     1 LIG        -0.5666
     27 H1         36.8378   34.0680   28.6383 H         1 LIG         0.2015
     28 H2         38.1994   33.2950   29.2749 H         1 LIG         0.2015
     29 H3         38.1578   34.8375   29.3610 H         1 LIG         0.2015
     30 H4         36.1896   34.8610   30.8366 H         1 LIG         0.1099
     31 H5         36.4874   31.8212   31.0732 H         1 LIG         0.0363
     32 H6         35.6293   32.4089   29.7222 H         1 LIG         0.0363
     33 H7         34.8727   33.6131   32.4480 H         1 LIG         0.0434
     34 H8         34.4730   31.9770   32.2091 H         1 LIG         0.0434
     35 H9         38.3693   35.8274   31.4240 H         1 LIG         0.1886
     36 H10        39.6069   34.1841   33.6383 H         1 LIG         0.0819
     37 H11        41.6506   34.6217   32.6941 H         1 LIG         0.0478
     38 H12        41.4231   36.2857   32.9358 H         1 LIG         0.0478
     39 H13        39.0005   37.5279   32.4552 H         1 LIG         0.1875
     40 H14        39.1282   38.5781   35.2069 H         1 LIG         0.0726
     41 H15        39.8466   40.3671   33.9573 H         1 LIG         0.0308
     42 H16        38.2285   40.6913   33.6161 H         1 LIG         0.0308
     43 H17        39.1991   38.4041   31.9342 H         1 LIG         0.0297
     44 H18        38.2738   39.8028   30.1058 H         1 LIG         0.0232
     45 H19        37.9598   41.1542   31.3257 H         1 LIG         0.0232
     46 H20        37.0976   39.7153   31.5278 H         1 LIG         0.0232
     47 H21        40.7508   39.7608   30.5288 H         1 LIG         0.0232
     48 H22        41.3886   39.6337   32.2608 H         1 LIG         0.0232
     49 H23        40.7063   41.1053   31.7989 H         1 LIG         0.0232
@<TRIPOS>BOND
     1    3    2 1  
     2    2    5 1  
     3    2    1 1  
     4    5    6 1  
     5    6    7 1  
     6    7    8 ar 
     7    7    9 ar 
     8    3    4 2  
     9   12   11 1  
    10   11   14 1  
    11   11   10 1  
    12   14   15 1  
    13   15   16 ar 
    14   15   17 ar 
    15   12   13 2  
    16   19   20 1  
    17   19   22 1  
    18   18   19 1  
    19   22   23 1  
    20   23   25 1  
    21   23   24 1  
    22   20   26 ar 
    23   20   21 ar 
    24   10    3 am 
    25   12   18 am 
    26    1   27 1  
    27    1   28 1  
    28    1   29 1  
    29    2   30 1  
    30    5   31 1  
    31    5   32 1  
    32    6   33 1  
    33    6   34 1  
    34   10   35 1  
    35   11   36 1  
    36   14   37 1  
    37   14   38 1  
    38   18   39 1  
    39   19   40 1  
    40   22   41 1  
    41   22   42 1  
    42   23   43 1  
    43   24   44 1  
    44   24   45 1  
    45   24   46 1  
    46   25   47 1  
    47   25   48 1  
    48   25   49 1  
@<TRIPOS>SUBSTRUCTURE
     1 LIG         1

